
**** 01/31/17 08:57:31 ****** PSpice Lite (October 2012) ****** ID# 10813 ****

 ** Profile: "SCHEMATIC1-mc freq"  [ C:\Users\Tiffany\Documents\Engineering\ECE4899 - Senior Design\git_logicals\SPICE schematic\PFE 


 ****     CIRCUIT DESCRIPTION


******************************************************************************




** Creating circuit file "mc freq.cir" 
** WARNING: THIS AUTOMATICALLY GENERATED FILE MAY BE OVERWRITTEN BY SUBSEQUENT SIMULATIONS

*Libraries: 
* Profile Libraries :
* Local Libraries :
* From [PSPICE NETLIST] section of C:\Users\Tiffany\AppData\Roaming\SPB_16.6\cdssetup\OrCAD_PSpice/16.6.0/PSpice.ini file:
.lib "nomd.lib" 

*Analysis directives: 
.AC DEC 100 100 16G
.MC 100 AC V([0]) YMAX LIST OUTPUT ALL SEED=1 
.OPTIONS DISTRIBUTION GAUSS
.OPTIONS ADVCONV
.PROBE64 V(alias(*)) I(alias(*)) W(alias(*)) D(alias(*)) NOISE(alias(*)) 
.INC "..\SCHEMATIC1.net" 



**** INCLUDING SCHEMATIC1.net ****
* source RC TEST
C_C857         N00232 N002051 C_C857 100p  TC=0,0 
.model        C_C857 CAP C=1 DEV=1% TC1=0 TC2=0 VC1=0 VC2=0
R_R75         0 N00232 R_R75 93.1 TC=0,0 
.model        R_R75 RES R=1 DEV=1% TC1=0 TC2=0
R_R79         N01142 N00232 R_R79 93.1 TC=0,0 
.model        R_R79 RES R=1 DEV=1% TC1=0 TC2=0
R_R74         0 N01142 R_R74 93.1 TC=0,0 
.model        R_R74 RES R=1 DEV=1% TC1=0 TC2=0
L_L11         N01142 N01860 L_L11 10nH  
.model        l_L11 IND L=1 DEV=1% TC1=0 TC2=0 IL1=0 IL2=0
L_L12         0 N01867 L_L12 10nH  
.model        l_L12 IND L=1 DEV=1% TC1=0 TC2=0 IL1=0 IL2=0
Kn_K1         L_L11 L_L12     1 Kbreak
C_C953         N01860 N01867 C_C953 1p  TC=0,0 
.model        C_C953 CAP C=1 DEV=1% TC1=0 TC2=0 VC1=0 VC2=0
L_L26         N01860 N02906 L_L26 1nH  
.model        l_L26 IND L=1 DEV=1% TC1=0 TC2=0 IL1=0 IL2=0
V_V1         N06779 0  AC 5
+SIN 0 5 1.9G 0 0 0
L_L27         N01867 N02914 L_L27 1nH  
.model        l_L27 IND L=1 DEV=1% TC1=0 TC2=0 IL1=0 IL2=0
R_R71         N02914 N02906 R_R71 93.1 TC=0,0 
.model        R_R71 RES R=1 DEV=1% TC1=0 TC2=0
C_C853         0 N02906 C_C853 100p  TC=0,0 
.model        C_C853 CAP C=1 DEV=1% TC1=0 TC2=0 VC1=0 VC2=0
C_C854         0 N02914 C_C854 100p  TC=0,0 
.model        C_C854 CAP C=1 DEV=1% TC1=0 TC2=0 VC1=0 VC2=0
R_R1b         N07707 N002051 R_R1b 2.0137 TC=0,0 
.model        R_R1b RES R=1 DEV=1% TC1=0 TC2=0
R_R1a         N07659 N07707 R_R1a 2.0137 TC=0,0 
.model        R_R1a RES R=1 DEV=1% TC1=0 TC2=0
R_R2         0 N07707 R_R2 619.75 TC=0,0 
.model        R_R2 RES R=1 DEV=1% TC1=0 TC2=0
C_C859         N07659 N06779 C_C859 100p  TC=0,0 
.model        C_C859 CAP C=1 DEV=1% TC1=0 TC2=0 VC1=0 VC2=0

**** RESUMING "mc freq.cir" ****
.END

**** 01/31/17 08:57:31 ****** PSpice Lite (October 2012) ****** ID# 10813 ****

 ** Profile: "SCHEMATIC1-mc freq"  [ C:\Users\Tiffany\Documents\Engineering\ECE4899 - Senior Design\git_logicals\SPICE schematic\PFE 


 ****     Resistor MODEL PARAMETERS


******************************************************************************




               R_R75           R_R79           R_R74           R_R71           
           R    1               1               1               1            


               R_R1b           R_R1a           R_R2            
           R    1               1               1            


**** 01/31/17 08:57:31 ****** PSpice Lite (October 2012) ****** ID# 10813 ****

 ** Profile: "SCHEMATIC1-mc freq"  [ C:\Users\Tiffany\Documents\Engineering\ECE4899 - Senior Design\git_logicals\SPICE schematic\PFE 


 ****     Capacitor MODEL PARAMETERS


******************************************************************************




               C_C857          C_C953          C_C853          C_C854          
           C    1               1               1               1            


               C_C859          
           C    1            


**** 01/31/17 08:57:31 ****** PSpice Lite (October 2012) ****** ID# 10813 ****

 ** Profile: "SCHEMATIC1-mc freq"  [ C:\Users\Tiffany\Documents\Engineering\ECE4899 - Senior Design\git_logicals\SPICE schematic\PFE 


 ****     Inductor MODEL PARAMETERS


******************************************************************************




               L_L11           L_L12           L_L26           L_L27           
           L    1               1               1               1            


**** 01/31/17 08:57:31 ****** PSpice Lite (October 2012) ****** ID# 10813 ****

 ** Profile: "SCHEMATIC1-mc freq"  [ C:\Users\Tiffany\Documents\Engineering\ECE4899 - Senior Design\git_logicals\SPICE schematic\PFE 


 ****     Ferromagnetic Core MODEL PARAMETERS


******************************************************************************




               Kbreak          
       LEVEL    2            
        AREA     .65         
        PATH    8            
          MS    1.289600E+06 
           A    2.712800E+03 
           C     .25001      


**** 01/31/17 08:57:31 ****** PSpice Lite (October 2012) ****** ID# 10813 ****

 ** Profile: "SCHEMATIC1-mc freq"  [ C:\Users\Tiffany\Documents\Engineering\ECE4899 - Senior Design\git_logicals\SPICE schematic\PFE 


 ****     SMALL SIGNAL BIAS SOLUTION       TEMPERATURE =   27.000 DEG C

                      MONTE CARLO NOMINAL

******************************************************************************



 NODE   VOLTAGE     NODE   VOLTAGE     NODE   VOLTAGE     NODE   VOLTAGE


(N00232)    0.0000 (N01142)    0.0000 (N01860)    0.0000 (N01867)    0.0000     

(N02906)    0.0000 (N02914)    0.0000 (N06779)    0.0000 (N07659)    0.0000     

(N07707)    0.0000 (N002051)    0.0000                   




    VOLTAGE SOURCE CURRENTS
    NAME         CURRENT

    V_V1         0.000E+00

    TOTAL POWER DISSIPATION   0.00E+00  WATTS


**** 01/31/17 08:57:31 ****** PSpice Lite (October 2012) ****** ID# 10813 ****

 ** Profile: "SCHEMATIC1-mc freq"  [ C:\Users\Tiffany\Documents\Engineering\ECE4899 - Senior Design\git_logicals\SPICE schematic\PFE 


 ****     UPDATED MODEL PARAMETERS         TEMPERATURE =   27.000 DEG C

                      MONTE CARLO NOMINAL

******************************************************************************



     **** CURRENT MODEL PARAMETERS FOR DEVICES REFERENCING C_C853
                                  C_C853                 
                  C             1.0000E+00  
                               
    
     **** CURRENT MODEL PARAMETERS FOR DEVICES REFERENCING C_C854
                                  C_C854                 
                  C             1.0000E+00  

    
     **** CURRENT MODEL PARAMETERS FOR DEVICES REFERENCING C_C857
                                  C_C857                 
                  C             1.0000E+00  

    
     **** CURRENT MODEL PARAMETERS FOR DEVICES REFERENCING C_C859
                                  C_C859                 
                  C             1.0000E+00  

    
     **** CURRENT MODEL PARAMETERS FOR DEVICES REFERENCING C_C953
                                  C_C953                 
                  C             1.0000E+00  

    
     **** CURRENT MODEL PARAMETERS FOR DEVICES REFERENCING L_L11
                                   L_L11                 
                  L             1.0000E+00  

    
     **** CURRENT MODEL PARAMETERS FOR DEVICES REFERENCING L_L12
                                   L_L12                 
                  L             1.0000E+00  

    
     **** CURRENT MODEL PARAMETERS FOR DEVICES REFERENCING L_L26
                                   L_L26                 
                  L             1.0000E+00  

    
     **** CURRENT MODEL PARAMETERS FOR DEVICES REFERENCING L_L27
                                   L_L27                 
                  L             1.0000E+00  

    
     **** CURRENT MODEL PARAMETERS FOR DEVICES REFERENCING R_R1a
                                   R_R1a                 
                  R             1.0000E+00  

    
     **** CURRENT MODEL PARAMETERS FOR DEVICES REFERENCING R_R1b
                                   R_R1b                 
                  R             1.0000E+00  

    
     **** CURRENT MODEL PARAMETERS FOR DEVICES REFERENCING R_R2
                                   R_R2                  
                  R             1.0000E+00  

    
     **** CURRENT MODEL PARAMETERS FOR DEVICES REFERENCING R_R71
                                   R_R71                 
                  R             1.0000E+00  

    
     **** CURRENT MODEL PARAMETERS FOR DEVICES REFERENCING R_R74
                                   R_R74                 
                  R             1.0000E+00  

    
     **** CURRENT MODEL PARAMETERS FOR DEVICES REFERENCING R_R75
                                   R_R75                 
                  R             1.0000E+00  

    
     **** CURRENT MODEL PARAMETERS FOR DEVICES REFERENCING R_R79
                                   R_R79                 
                  R             1.0000E+00  

    

**** 01/31/17 08:57:31 ****** PSpice Lite (October 2012) ****** ID# 10813 ****

 ** Profile: "SCHEMATIC1-mc freq"  [ C:\Users\Tiffany\Documents\Engineering\ECE4899 - Senior Design\git_logicals\SPICE schematic\PFE 


 ****     SMALL SIGNAL BIAS SOLUTION       TEMPERATURE =   27.000 DEG C

                      MONTE CARLO PASS 2

******************************************************************************



 NODE   VOLTAGE     NODE   VOLTAGE     NODE   VOLTAGE     NODE   VOLTAGE


(N00232)    0.0000 (N01142)    0.0000 (N01860)    0.0000 (N01867)    0.0000     

(N02906)    0.0000 (N02914)    0.0000 (N06779)    0.0000 (N07659)    0.0000     

(N07707)    0.0000 (N002051)    0.0000                   




    VOLTAGE SOURCE CURRENTS
    NAME         CURRENT

    V_V1         0.000E+00

    TOTAL POWER DISSIPATION   0.00E+00  WATTS


**** 01/31/17 08:57:31 ****** PSpice Lite (October 2012) ****** ID# 10813 ****

 ** Profile: "SCHEMATIC1-mc freq"  [ C:\Users\Tiffany\Documents\Engineering\ECE4899 - Senior Design\git_logicals\SPICE schematic\PFE 


 ****     UPDATED MODEL PARAMETERS         TEMPERATURE =   27.000 DEG C

                      MONTE CARLO PASS 2

******************************************************************************



     **** CURRENT MODEL PARAMETERS FOR DEVICES REFERENCING C_C853
                                  C_C853                 
                  C             1.0045E+00  
                               
    
     **** CURRENT MODEL PARAMETERS FOR DEVICES REFERENCING C_C854
                                  C_C854                 
                  C             9.9947E-01  

    
     **** CURRENT MODEL PARAMETERS FOR DEVICES REFERENCING C_C857
                                  C_C857                 
                  C             9.9445E-01  

    
     **** CURRENT MODEL PARAMETERS FOR DEVICES REFERENCING C_C859
                                  C_C859                 
                  C             9.9069E-01  

    
     **** CURRENT MODEL PARAMETERS FOR DEVICES REFERENCING C_C953
                                  C_C953                 
                  C             9.9661E-01  

    
     **** CURRENT MODEL PARAMETERS FOR DEVICES REFERENCING L_L11
                                   L_L11                 
                  L             9.9288E-01  

    
     **** CURRENT MODEL PARAMETERS FOR DEVICES REFERENCING L_L12
                                   L_L12                 
                  L             1.0167E+00  

    
     **** CURRENT MODEL PARAMETERS FOR DEVICES REFERENCING L_L26
                                   L_L26                 
                  L             9.8955E-01  

    
     **** CURRENT MODEL PARAMETERS FOR DEVICES REFERENCING L_L27
                                   L_L27                 
                  L             9.9044E-01  

    
     **** CURRENT MODEL PARAMETERS FOR DEVICES REFERENCING R_R1a
                                   R_R1a                 
                  R             1.0119E+00  

    
     **** CURRENT MODEL PARAMETERS FOR DEVICES REFERENCING R_R1b
                                   R_R1b                 
                  R             1.0055E+00  

    
     **** CURRENT MODEL PARAMETERS FOR DEVICES REFERENCING R_R2
                                   R_R2                  
                  R             1.0043E+00  

    
     **** CURRENT MODEL PARAMETERS FOR DEVICES REFERENCING R_R71
                                   R_R71                 
                  R             9.9781E-01  

    
     **** CURRENT MODEL PARAMETERS FOR DEVICES REFERENCING R_R74
                                   R_R74                 
                  R             1.0068E+00  

    
     **** CURRENT MODEL PARAMETERS FOR DEVICES REFERENCING R_R75
                                   R_R75                 
                  R             1.0055E+00  

    
     **** CURRENT MODEL PARAMETERS FOR DEVICES REFERENCING R_R79
                                   R_R79                 
                  R             1.0098E+00  

    

**** 01/31/17 08:57:31 ****** PSpice Lite (October 2012) ****** ID# 10813 ****

 ** Profile: "SCHEMATIC1-mc freq"  [ C:\Users\Tiffany\Documents\Engineering\ECE4899 - Senior Design\git_logicals\SPICE schematic\PFE 


 ****     SMALL SIGNAL BIAS SOLUTION       TEMPERATURE =   27.000 DEG C

                      MONTE CARLO PASS 3

******************************************************************************



 NODE   VOLTAGE     NODE   VOLTAGE     NODE   VOLTAGE     NODE   VOLTAGE


(N00232)    0.0000 (N01142)    0.0000 (N01860)    0.0000 (N01867)    0.0000     

(N02906)    0.0000 (N02914)    0.0000 (N06779)    0.0000 (N07659)    0.0000     

(N07707)    0.0000 (N002051)    0.0000                   




    VOLTAGE SOURCE CURRENTS
    NAME         CURRENT

    V_V1         0.000E+00

    TOTAL POWER DISSIPATION   0.00E+00  WATTS


**** 01/31/17 08:57:31 ****** PSpice Lite (October 2012) ****** ID# 10813 ****

 ** Profile: "SCHEMATIC1-mc freq"  [ C:\Users\Tiffany\Documents\Engineering\ECE4899 - Senior Design\git_logicals\SPICE schematic\PFE 


 ****     UPDATED MODEL PARAMETERS         TEMPERATURE =   27.000 DEG C

                      MONTE CARLO PASS 3

******************************************************************************



     **** CURRENT MODEL PARAMETERS FOR DEVICES REFERENCING C_C853
                                  C_C853                 
                  C             9.8625E-01  
                               
    
     **** CURRENT MODEL PARAMETERS FOR DEVICES REFERENCING C_C854
                                  C_C854                 
                  C             1.0176E+00  

    
     **** CURRENT MODEL PARAMETERS FOR DEVICES REFERENCING C_C857
                                  C_C857                 
                  C             1.0011E+00  

    
     **** CURRENT MODEL PARAMETERS FOR DEVICES REFERENCING C_C859
                                  C_C859                 
                  C             9.8941E-01  

    
     **** CURRENT MODEL PARAMETERS FOR DEVICES REFERENCING C_C953
                                  C_C953                 
                  C             1.0079E+00  

    
     **** CURRENT MODEL PARAMETERS FOR DEVICES REFERENCING L_L11
                                   L_L11                 
                  L             1.0062E+00  

    
     **** CURRENT MODEL PARAMETERS FOR DEVICES REFERENCING L_L12
                                   L_L12                 
                  L             9.9273E-01  

    
     **** CURRENT MODEL PARAMETERS FOR DEVICES REFERENCING L_L26
                                   L_L26                 
                  L             1.0043E+00  

    
     **** CURRENT MODEL PARAMETERS FOR DEVICES REFERENCING L_L27
                                   L_L27                 
                  L             1.0022E+00  

    
     **** CURRENT MODEL PARAMETERS FOR DEVICES REFERENCING R_R1a
                                   R_R1a                 
                  R             9.9393E-01  

    
     **** CURRENT MODEL PARAMETERS FOR DEVICES REFERENCING R_R1b
                                   R_R1b                 
                  R             1.0145E+00  

    
     **** CURRENT MODEL PARAMETERS FOR DEVICES REFERENCING R_R2
                                   R_R2                  
                  R             1.0084E+00  

    
     **** CURRENT MODEL PARAMETERS FOR DEVICES REFERENCING R_R71
                                   R_R71                 
                  R             9.9762E-01  

    
     **** CURRENT MODEL PARAMETERS FOR DEVICES REFERENCING R_R74
                                   R_R74                 
                  R             9.9143E-01  

    
     **** CURRENT MODEL PARAMETERS FOR DEVICES REFERENCING R_R75
                                   R_R75                 
                  R             9.8692E-01  

    
     **** CURRENT MODEL PARAMETERS FOR DEVICES REFERENCING R_R79
                                   R_R79                 
                  R             1.0038E+00  

    

**** 01/31/17 08:57:31 ****** PSpice Lite (October 2012) ****** ID# 10813 ****

 ** Profile: "SCHEMATIC1-mc freq"  [ C:\Users\Tiffany\Documents\Engineering\ECE4899 - Senior Design\git_logicals\SPICE schematic\PFE 


 ****     SMALL SIGNAL BIAS SOLUTION       TEMPERATURE =   27.000 DEG C

                      MONTE CARLO PASS 4

******************************************************************************



 NODE   VOLTAGE     NODE   VOLTAGE     NODE   VOLTAGE     NODE   VOLTAGE


(N00232)    0.0000 (N01142)    0.0000 (N01860)    0.0000 (N01867)    0.0000     

(N02906)    0.0000 (N02914)    0.0000 (N06779)    0.0000 (N07659)    0.0000     

(N07707)    0.0000 (N002051)    0.0000                   




    VOLTAGE SOURCE CURRENTS
    NAME         CURRENT

    V_V1         0.000E+00

    TOTAL POWER DISSIPATION   0.00E+00  WATTS


**** 01/31/17 08:57:31 ****** PSpice Lite (October 2012) ****** ID# 10813 ****

 ** Profile: "SCHEMATIC1-mc freq"  [ C:\Users\Tiffany\Documents\Engineering\ECE4899 - Senior Design\git_logicals\SPICE schematic\PFE 


 ****     UPDATED MODEL PARAMETERS         TEMPERATURE =   27.000 DEG C

                      MONTE CARLO PASS 4

******************************************************************************



     **** CURRENT MODEL PARAMETERS FOR DEVICES REFERENCING C_C853
                                  C_C853                 
                  C             1.0041E+00  
                               
    
     **** CURRENT MODEL PARAMETERS FOR DEVICES REFERENCING C_C854
                                  C_C854                 
                  C             9.9947E-01  

    
     **** CURRENT MODEL PARAMETERS FOR DEVICES REFERENCING C_C857
                                  C_C857                 
                  C             1.0097E+00  

    
     **** CURRENT MODEL PARAMETERS FOR DEVICES REFERENCING C_C859
                                  C_C859                 
                  C             9.9393E-01  

    
     **** CURRENT MODEL PARAMETERS FOR DEVICES REFERENCING C_C953
                                  C_C953                 
                  C             1.0135E+00  

    
     **** CURRENT MODEL PARAMETERS FOR DEVICES REFERENCING L_L11
                                   L_L11                 
                  L             9.8334E-01  

    
     **** CURRENT MODEL PARAMETERS FOR DEVICES REFERENCING L_L12
                                   L_L12                 
                  L             1.0041E+00  

    
     **** CURRENT MODEL PARAMETERS FOR DEVICES REFERENCING L_L26
                                   L_L26                 
                  L             9.9397E-01  

    
     **** CURRENT MODEL PARAMETERS FOR DEVICES REFERENCING L_L27
                                   L_L27                 
                  L             9.9044E-01  

    
     **** CURRENT MODEL PARAMETERS FOR DEVICES REFERENCING R_R1a
                                   R_R1a                 
                  R             9.8497E-01  

    
     **** CURRENT MODEL PARAMETERS FOR DEVICES REFERENCING R_R1b
                                   R_R1b                 
                  R             1.0017E+00  

    
     **** CURRENT MODEL PARAMETERS FOR DEVICES REFERENCING R_R2
                                   R_R2                  
                  R             1.0105E+00  

    
     **** CURRENT MODEL PARAMETERS FOR DEVICES REFERENCING R_R71
                                   R_R71                 
                  R             9.9195E-01  

    
     **** CURRENT MODEL PARAMETERS FOR DEVICES REFERENCING R_R74
                                   R_R74                 
                  R             1.0068E+00  

    
     **** CURRENT MODEL PARAMETERS FOR DEVICES REFERENCING R_R75
                                   R_R75                 
                  R             9.9664E-01  

    
     **** CURRENT MODEL PARAMETERS FOR DEVICES REFERENCING R_R79
                                   R_R79                 
                  R             9.9978E-01  

    

**** 01/31/17 08:57:31 ****** PSpice Lite (October 2012) ****** ID# 10813 ****

 ** Profile: "SCHEMATIC1-mc freq"  [ C:\Users\Tiffany\Documents\Engineering\ECE4899 - Senior Design\git_logicals\SPICE schematic\PFE 


 ****     SMALL SIGNAL BIAS SOLUTION       TEMPERATURE =   27.000 DEG C

                      MONTE CARLO PASS 5

******************************************************************************



 NODE   VOLTAGE     NODE   VOLTAGE     NODE   VOLTAGE     NODE   VOLTAGE


(N00232)    0.0000 (N01142)    0.0000 (N01860)    0.0000 (N01867)    0.0000     

(N02906)    0.0000 (N02914)    0.0000 (N06779)    0.0000 (N07659)    0.0000     

(N07707)    0.0000 (N002051)    0.0000                   




    VOLTAGE SOURCE CURRENTS
    NAME         CURRENT

    V_V1         0.000E+00

    TOTAL POWER DISSIPATION   0.00E+00  WATTS


**** 01/31/17 08:57:31 ****** PSpice Lite (October 2012) ****** ID# 10813 ****

 ** Profile: "SCHEMATIC1-mc freq"  [ C:\Users\Tiffany\Documents\Engineering\ECE4899 - Senior Design\git_logicals\SPICE schematic\PFE 


 ****     UPDATED MODEL PARAMETERS         TEMPERATURE =   27.000 DEG C

                      MONTE CARLO PASS 5

******************************************************************************



     **** CURRENT MODEL PARAMETERS FOR DEVICES REFERENCING C_C853
                                  C_C853                 
                  C             9.8625E-01  
                               
    
     **** CURRENT MODEL PARAMETERS FOR DEVICES REFERENCING C_C854
                                  C_C854                 
                  C             1.0176E+00  

    
     **** CURRENT MODEL PARAMETERS FOR DEVICES REFERENCING C_C857
                                  C_C857                 
                  C             1.0037E+00  

    
     **** CURRENT MODEL PARAMETERS FOR DEVICES REFERENCING C_C859
                                  C_C859                 
                  C             9.9546E-01  

    
     **** CURRENT MODEL PARAMETERS FOR DEVICES REFERENCING C_C953
                                  C_C953                 
                  C             9.9886E-01  

    
     **** CURRENT MODEL PARAMETERS FOR DEVICES REFERENCING L_L11
                                   L_L11                 
                  L             1.0087E+00  

    
     **** CURRENT MODEL PARAMETERS FOR DEVICES REFERENCING L_L12
                                   L_L12                 
                  L             9.9940E-01  

    
     **** CURRENT MODEL PARAMETERS FOR DEVICES REFERENCING L_L26
                                   L_L26                 
                  L             9.8708E-01  

    
     **** CURRENT MODEL PARAMETERS FOR DEVICES REFERENCING L_L27
                                   L_L27                 
                  L             9.9670E-01  

    
     **** CURRENT MODEL PARAMETERS FOR DEVICES REFERENCING R_R1a
                                   R_R1a                 
                  R             9.9521E-01  

    
     **** CURRENT MODEL PARAMETERS FOR DEVICES REFERENCING R_R1b
                                   R_R1b                 
                  R             1.0145E+00  

    
     **** CURRENT MODEL PARAMETERS FOR DEVICES REFERENCING R_R2
                                   R_R2                  
                  R             1.0084E+00  

    
     **** CURRENT MODEL PARAMETERS FOR DEVICES REFERENCING R_R71
                                   R_R71                 
                  R             9.8833E-01  

    
     **** CURRENT MODEL PARAMETERS FOR DEVICES REFERENCING R_R74
                                   R_R74                 
                  R             9.9143E-01  

    
     **** CURRENT MODEL PARAMETERS FOR DEVICES REFERENCING R_R75
                                   R_R75                 
                  R             9.8297E-01  

    
     **** CURRENT MODEL PARAMETERS FOR DEVICES REFERENCING R_R79
                                   R_R79                 
                  R             1.0038E+00  

    

**** 01/31/17 08:57:31 ****** PSpice Lite (October 2012) ****** ID# 10813 ****

 ** Profile: "SCHEMATIC1-mc freq"  [ C:\Users\Tiffany\Documents\Engineering\ECE4899 - Senior Design\git_logicals\SPICE schematic\PFE 


 ****     SMALL SIGNAL BIAS SOLUTION       TEMPERATURE =   27.000 DEG C

                      MONTE CARLO PASS 6

******************************************************************************



 NODE   VOLTAGE     NODE   VOLTAGE     NODE   VOLTAGE     NODE   VOLTAGE


(N00232)    0.0000 (N01142)    0.0000 (N01860)    0.0000 (N01867)    0.0000     

(N02906)    0.0000 (N02914)    0.0000 (N06779)    0.0000 (N07659)    0.0000     

(N07707)    0.0000 (N002051)    0.0000                   




    VOLTAGE SOURCE CURRENTS
    NAME         CURRENT

    V_V1         0.000E+00

    TOTAL POWER DISSIPATION   0.00E+00  WATTS


**** 01/31/17 08:57:31 ****** PSpice Lite (October 2012) ****** ID# 10813 ****

 ** Profile: "SCHEMATIC1-mc freq"  [ C:\Users\Tiffany\Documents\Engineering\ECE4899 - Senior Design\git_logicals\SPICE schematic\PFE 


 ****     UPDATED MODEL PARAMETERS         TEMPERATURE =   27.000 DEG C

                      MONTE CARLO PASS 6

******************************************************************************



     **** CURRENT MODEL PARAMETERS FOR DEVICES REFERENCING C_C853
                                  C_C853                 
                  C             9.9715E-01  
                               
    
     **** CURRENT MODEL PARAMETERS FOR DEVICES REFERENCING C_C854
                                  C_C854                 
                  C             1.0076E+00  

    
     **** CURRENT MODEL PARAMETERS FOR DEVICES REFERENCING C_C857
                                  C_C857                 
                  C             1.0037E+00  

    
     **** CURRENT MODEL PARAMETERS FOR DEVICES REFERENCING C_C859
                                  C_C859                 
                  C             9.9892E-01  

    
     **** CURRENT MODEL PARAMETERS FOR DEVICES REFERENCING C_C953
                                  C_C953                 
                  C             1.0135E+00  

    
     **** CURRENT MODEL PARAMETERS FOR DEVICES REFERENCING L_L11
                                   L_L11                 
                  L             1.0038E+00  

    
     **** CURRENT MODEL PARAMETERS FOR DEVICES REFERENCING L_L12
                                   L_L12                 
                  L             9.8514E-01  

    
     **** CURRENT MODEL PARAMETERS FOR DEVICES REFERENCING L_L26
                                   L_L26                 
                  L             9.9737E-01  

    
     **** CURRENT MODEL PARAMETERS FOR DEVICES REFERENCING L_L27
                                   L_L27                 
                  L             9.9716E-01  

    
     **** CURRENT MODEL PARAMETERS FOR DEVICES REFERENCING R_R1a
                                   R_R1a                 
                  R             9.9940E-01  

    
     **** CURRENT MODEL PARAMETERS FOR DEVICES REFERENCING R_R1b
                                   R_R1b                 
                  R             9.9320E-01  

    
     **** CURRENT MODEL PARAMETERS FOR DEVICES REFERENCING R_R2
                                   R_R2                  
                  R             1.0317E+00  

    
     **** CURRENT MODEL PARAMETERS FOR DEVICES REFERENCING R_R71
                                   R_R71                 
                  R             9.9195E-01  

    
     **** CURRENT MODEL PARAMETERS FOR DEVICES REFERENCING R_R74
                                   R_R74                 
                  R             1.0068E+00  

    
     **** CURRENT MODEL PARAMETERS FOR DEVICES REFERENCING R_R75
                                   R_R75                 
                  R             9.8658E-01  

    
     **** CURRENT MODEL PARAMETERS FOR DEVICES REFERENCING R_R79
                                   R_R79                 
                  R             9.9978E-01  

    

**** 01/31/17 08:57:31 ****** PSpice Lite (October 2012) ****** ID# 10813 ****

 ** Profile: "SCHEMATIC1-mc freq"  [ C:\Users\Tiffany\Documents\Engineering\ECE4899 - Senior Design\git_logicals\SPICE schematic\PFE 


 ****     SMALL SIGNAL BIAS SOLUTION       TEMPERATURE =   27.000 DEG C

                      MONTE CARLO PASS 7

******************************************************************************



 NODE   VOLTAGE     NODE   VOLTAGE     NODE   VOLTAGE     NODE   VOLTAGE


(N00232)    0.0000 (N01142)    0.0000 (N01860)    0.0000 (N01867)    0.0000     

(N02906)    0.0000 (N02914)    0.0000 (N06779)    0.0000 (N07659)    0.0000     

(N07707)    0.0000 (N002051)    0.0000                   




    VOLTAGE SOURCE CURRENTS
    NAME         CURRENT

    V_V1         0.000E+00

    TOTAL POWER DISSIPATION   0.00E+00  WATTS


**** 01/31/17 08:57:31 ****** PSpice Lite (October 2012) ****** ID# 10813 ****

 ** Profile: "SCHEMATIC1-mc freq"  [ C:\Users\Tiffany\Documents\Engineering\ECE4899 - Senior Design\git_logicals\SPICE schematic\PFE 


 ****     UPDATED MODEL PARAMETERS         TEMPERATURE =   27.000 DEG C

                      MONTE CARLO PASS 7

******************************************************************************



     **** CURRENT MODEL PARAMETERS FOR DEVICES REFERENCING C_C853
                                  C_C853                 
                  C             9.9842E-01  
                               
    
     **** CURRENT MODEL PARAMETERS FOR DEVICES REFERENCING C_C854
                                  C_C854                 
                  C             1.0074E+00  

    
     **** CURRENT MODEL PARAMETERS FOR DEVICES REFERENCING C_C857
                                  C_C857                 
                  C             1.0037E+00  

    
     **** CURRENT MODEL PARAMETERS FOR DEVICES REFERENCING C_C859
                                  C_C859                 
                  C             9.8582E-01  

    
     **** CURRENT MODEL PARAMETERS FOR DEVICES REFERENCING C_C953
                                  C_C953                 
                  C             1.0039E+00  

    
     **** CURRENT MODEL PARAMETERS FOR DEVICES REFERENCING L_L11
                                   L_L11                 
                  L             9.8448E-01  

    
     **** CURRENT MODEL PARAMETERS FOR DEVICES REFERENCING L_L12
                                   L_L12                 
                  L             9.8800E-01  

    
     **** CURRENT MODEL PARAMETERS FOR DEVICES REFERENCING L_L26
                                   L_L26                 
                  L             9.8391E-01  

    
     **** CURRENT MODEL PARAMETERS FOR DEVICES REFERENCING L_L27
                                   L_L27                 
                  L             1.0006E+00  

    
     **** CURRENT MODEL PARAMETERS FOR DEVICES REFERENCING R_R1a
                                   R_R1a                 
                  R             9.8628E-01  

    
     **** CURRENT MODEL PARAMETERS FOR DEVICES REFERENCING R_R1b
                                   R_R1b                 
                  R             9.9422E-01  

    
     **** CURRENT MODEL PARAMETERS FOR DEVICES REFERENCING R_R2
                                   R_R2                  
                  R             9.9992E-01  

    
     **** CURRENT MODEL PARAMETERS FOR DEVICES REFERENCING R_R71
                                   R_R71                 
                  R             1.0092E+00  

    
     **** CURRENT MODEL PARAMETERS FOR DEVICES REFERENCING R_R74
                                   R_R74                 
                  R             9.9007E-01  

    
     **** CURRENT MODEL PARAMETERS FOR DEVICES REFERENCING R_R75
                                   R_R75                 
                  R             1.0053E+00  

    
     **** CURRENT MODEL PARAMETERS FOR DEVICES REFERENCING R_R79
                                   R_R79                 
                  R             9.8435E-01  

    

**** 01/31/17 08:57:31 ****** PSpice Lite (October 2012) ****** ID# 10813 ****

 ** Profile: "SCHEMATIC1-mc freq"  [ C:\Users\Tiffany\Documents\Engineering\ECE4899 - Senior Design\git_logicals\SPICE schematic\PFE 


 ****     SMALL SIGNAL BIAS SOLUTION       TEMPERATURE =   27.000 DEG C

                      MONTE CARLO PASS 8

******************************************************************************



 NODE   VOLTAGE     NODE   VOLTAGE     NODE   VOLTAGE     NODE   VOLTAGE


(N00232)    0.0000 (N01142)    0.0000 (N01860)    0.0000 (N01867)    0.0000     

(N02906)    0.0000 (N02914)    0.0000 (N06779)    0.0000 (N07659)    0.0000     

(N07707)    0.0000 (N002051)    0.0000                   




    VOLTAGE SOURCE CURRENTS
    NAME         CURRENT

    V_V1         0.000E+00

    TOTAL POWER DISSIPATION   0.00E+00  WATTS


**** 01/31/17 08:57:31 ****** PSpice Lite (October 2012) ****** ID# 10813 ****

 ** Profile: "SCHEMATIC1-mc freq"  [ C:\Users\Tiffany\Documents\Engineering\ECE4899 - Senior Design\git_logicals\SPICE schematic\PFE 


 ****     UPDATED MODEL PARAMETERS         TEMPERATURE =   27.000 DEG C

                      MONTE CARLO PASS 8

******************************************************************************



     **** CURRENT MODEL PARAMETERS FOR DEVICES REFERENCING C_C853
                                  C_C853                 
                  C             9.9715E-01  
                               
    
     **** CURRENT MODEL PARAMETERS FOR DEVICES REFERENCING C_C854
                                  C_C854                 
                  C             9.9337E-01  

    
     **** CURRENT MODEL PARAMETERS FOR DEVICES REFERENCING C_C857
                                  C_C857                 
                  C             1.0011E+00  

    
     **** CURRENT MODEL PARAMETERS FOR DEVICES REFERENCING C_C859
                                  C_C859                 
                  C             1.0087E+00  

    
     **** CURRENT MODEL PARAMETERS FOR DEVICES REFERENCING C_C953
                                  C_C953                 
                  C             9.9903E-01  

    
     **** CURRENT MODEL PARAMETERS FOR DEVICES REFERENCING L_L11
                                   L_L11                 
                  L             1.0038E+00  

    
     **** CURRENT MODEL PARAMETERS FOR DEVICES REFERENCING L_L12
                                   L_L12                 
                  L             9.9202E-01  

    
     **** CURRENT MODEL PARAMETERS FOR DEVICES REFERENCING L_L26
                                   L_L26                 
                  L             9.9814E-01  

    
     **** CURRENT MODEL PARAMETERS FOR DEVICES REFERENCING L_L27
                                   L_L27                 
                  L             9.9716E-01  

    
     **** CURRENT MODEL PARAMETERS FOR DEVICES REFERENCING R_R1a
                                   R_R1a                 
                  R             1.0056E+00  

    
     **** CURRENT MODEL PARAMETERS FOR DEVICES REFERENCING R_R1b
                                   R_R1b                 
                  R             9.8849E-01  

    
     **** CURRENT MODEL PARAMETERS FOR DEVICES REFERENCING R_R2
                                   R_R2                  
                  R             1.0317E+00  

    
     **** CURRENT MODEL PARAMETERS FOR DEVICES REFERENCING R_R71
                                   R_R71                 
                  R             9.9357E-01  

    
     **** CURRENT MODEL PARAMETERS FOR DEVICES REFERENCING R_R74
                                   R_R74                 
                  R             1.0048E+00  

    
     **** CURRENT MODEL PARAMETERS FOR DEVICES REFERENCING R_R75
                                   R_R75                 
                  R             1.0049E+00  

    
     **** CURRENT MODEL PARAMETERS FOR DEVICES REFERENCING R_R79
                                   R_R79                 
                  R             9.9811E-01  

    

**** 01/31/17 08:57:31 ****** PSpice Lite (October 2012) ****** ID# 10813 ****

 ** Profile: "SCHEMATIC1-mc freq"  [ C:\Users\Tiffany\Documents\Engineering\ECE4899 - Senior Design\git_logicals\SPICE schematic\PFE 


 ****     SMALL SIGNAL BIAS SOLUTION       TEMPERATURE =   27.000 DEG C

                      MONTE CARLO PASS 9

******************************************************************************



 NODE   VOLTAGE     NODE   VOLTAGE     NODE   VOLTAGE     NODE   VOLTAGE


(N00232)    0.0000 (N01142)    0.0000 (N01860)    0.0000 (N01867)    0.0000     

(N02906)    0.0000 (N02914)    0.0000 (N06779)    0.0000 (N07659)    0.0000     

(N07707)    0.0000 (N002051)    0.0000                   




    VOLTAGE SOURCE CURRENTS
    NAME         CURRENT

    V_V1         0.000E+00

    TOTAL POWER DISSIPATION   0.00E+00  WATTS


**** 01/31/17 08:57:31 ****** PSpice Lite (October 2012) ****** ID# 10813 ****

 ** Profile: "SCHEMATIC1-mc freq"  [ C:\Users\Tiffany\Documents\Engineering\ECE4899 - Senior Design\git_logicals\SPICE schematic\PFE 


 ****     UPDATED MODEL PARAMETERS         TEMPERATURE =   27.000 DEG C

                      MONTE CARLO PASS 9

******************************************************************************



     **** CURRENT MODEL PARAMETERS FOR DEVICES REFERENCING C_C853
                                  C_C853                 
                  C             9.9842E-01  
                               
    
     **** CURRENT MODEL PARAMETERS FOR DEVICES REFERENCING C_C854
                                  C_C854                 
                  C             1.0074E+00  

    
     **** CURRENT MODEL PARAMETERS FOR DEVICES REFERENCING C_C857
                                  C_C857                 
                  C             9.8266E-01  

    
     **** CURRENT MODEL PARAMETERS FOR DEVICES REFERENCING C_C859
                                  C_C859                 
                  C             9.8565E-01  

    
     **** CURRENT MODEL PARAMETERS FOR DEVICES REFERENCING C_C953
                                  C_C953                 
                  C             1.0039E+00  

    
     **** CURRENT MODEL PARAMETERS FOR DEVICES REFERENCING L_L11
                                   L_L11                 
                  L             9.8448E-01  

    
     **** CURRENT MODEL PARAMETERS FOR DEVICES REFERENCING L_L12
                                   L_L12                 
                  L             1.0092E+00  

    
     **** CURRENT MODEL PARAMETERS FOR DEVICES REFERENCING L_L26
                                   L_L26                 
                  L             9.9887E-01  

    
     **** CURRENT MODEL PARAMETERS FOR DEVICES REFERENCING L_L27
                                   L_L27                 
                  L             1.0006E+00  

    
     **** CURRENT MODEL PARAMETERS FOR DEVICES REFERENCING R_R1a
                                   R_R1a                 
                  R             1.0043E+00  

    
     **** CURRENT MODEL PARAMETERS FOR DEVICES REFERENCING R_R1b
                                   R_R1b                 
                  R             1.0010E+00  

    
     **** CURRENT MODEL PARAMETERS FOR DEVICES REFERENCING R_R2
                                   R_R2                  
                  R             9.9838E-01  

    
     **** CURRENT MODEL PARAMETERS FOR DEVICES REFERENCING R_R71
                                   R_R71                 
                  R             1.0159E+00  

    
     **** CURRENT MODEL PARAMETERS FOR DEVICES REFERENCING R_R74
                                   R_R74                 
                  R             1.0088E+00  

    
     **** CURRENT MODEL PARAMETERS FOR DEVICES REFERENCING R_R75
                                   R_R75                 
                  R             9.9783E-01  

    
     **** CURRENT MODEL PARAMETERS FOR DEVICES REFERENCING R_R79
                                   R_R79                 
                  R             9.8578E-01  

    

**** 01/31/17 08:57:31 ****** PSpice Lite (October 2012) ****** ID# 10813 ****

 ** Profile: "SCHEMATIC1-mc freq"  [ C:\Users\Tiffany\Documents\Engineering\ECE4899 - Senior Design\git_logicals\SPICE schematic\PFE 


 ****     SMALL SIGNAL BIAS SOLUTION       TEMPERATURE =   27.000 DEG C

                      MONTE CARLO PASS 10

******************************************************************************



 NODE   VOLTAGE     NODE   VOLTAGE     NODE   VOLTAGE     NODE   VOLTAGE


(N00232)    0.0000 (N01142)    0.0000 (N01860)    0.0000 (N01867)    0.0000     

(N02906)    0.0000 (N02914)    0.0000 (N06779)    0.0000 (N07659)    0.0000     

(N07707)    0.0000 (N002051)    0.0000                   




    VOLTAGE SOURCE CURRENTS
    NAME         CURRENT

    V_V1         0.000E+00

    TOTAL POWER DISSIPATION   0.00E+00  WATTS


**** 01/31/17 08:57:31 ****** PSpice Lite (October 2012) ****** ID# 10813 ****

 ** Profile: "SCHEMATIC1-mc freq"  [ C:\Users\Tiffany\Documents\Engineering\ECE4899 - Senior Design\git_logicals\SPICE schematic\PFE 


 ****     UPDATED MODEL PARAMETERS         TEMPERATURE =   27.000 DEG C

                      MONTE CARLO PASS 10

******************************************************************************



     **** CURRENT MODEL PARAMETERS FOR DEVICES REFERENCING C_C853
                                  C_C853                 
                  C             9.9715E-01  
                               
    
     **** CURRENT MODEL PARAMETERS FOR DEVICES REFERENCING C_C854
                                  C_C854                 
                  C             9.9337E-01  

    
     **** CURRENT MODEL PARAMETERS FOR DEVICES REFERENCING C_C857
                                  C_C857                 
                  C             1.0090E+00  

    
     **** CURRENT MODEL PARAMETERS FOR DEVICES REFERENCING C_C859
                                  C_C859                 
                  C             9.9306E-01  

    
     **** CURRENT MODEL PARAMETERS FOR DEVICES REFERENCING C_C953
                                  C_C953                 
                  C             1.0007E+00  

    
     **** CURRENT MODEL PARAMETERS FOR DEVICES REFERENCING L_L11
                                   L_L11                 
                  L             1.0038E+00  

    
     **** CURRENT MODEL PARAMETERS FOR DEVICES REFERENCING L_L12
                                   L_L12                 
                  L             1.0031E+00  

    
     **** CURRENT MODEL PARAMETERS FOR DEVICES REFERENCING L_L26
                                   L_L26                 
                  L             1.0211E+00  

    
     **** CURRENT MODEL PARAMETERS FOR DEVICES REFERENCING L_L27
                                   L_L27                 
                  L             1.0024E+00  

    
     **** CURRENT MODEL PARAMETERS FOR DEVICES REFERENCING R_R1a
                                   R_R1a                 
                  R             9.8247E-01  

    
     **** CURRENT MODEL PARAMETERS FOR DEVICES REFERENCING R_R1b
                                   R_R1b                 
                  R             9.8849E-01  

    
     **** CURRENT MODEL PARAMETERS FOR DEVICES REFERENCING R_R2
                                   R_R2                  
                  R             1.0125E+00  

    
     **** CURRENT MODEL PARAMETERS FOR DEVICES REFERENCING R_R71
                                   R_R71                 
                  R             9.8647E-01  

    
     **** CURRENT MODEL PARAMETERS FOR DEVICES REFERENCING R_R74
                                   R_R74                 
                  R             1.0080E+00  

    
     **** CURRENT MODEL PARAMETERS FOR DEVICES REFERENCING R_R75
                                   R_R75                 
                  R             9.9875E-01  

    
     **** CURRENT MODEL PARAMETERS FOR DEVICES REFERENCING R_R79
                                   R_R79                 
                  R             1.0002E+00  

    

**** 01/31/17 08:57:31 ****** PSpice Lite (October 2012) ****** ID# 10813 ****

 ** Profile: "SCHEMATIC1-mc freq"  [ C:\Users\Tiffany\Documents\Engineering\ECE4899 - Senior Design\git_logicals\SPICE schematic\PFE 


 ****     SMALL SIGNAL BIAS SOLUTION       TEMPERATURE =   27.000 DEG C

                      MONTE CARLO PASS 11

******************************************************************************



 NODE   VOLTAGE     NODE   VOLTAGE     NODE   VOLTAGE     NODE   VOLTAGE


(N00232)    0.0000 (N01142)    0.0000 (N01860)    0.0000 (N01867)    0.0000     

(N02906)    0.0000 (N02914)    0.0000 (N06779)    0.0000 (N07659)    0.0000     

(N07707)    0.0000 (N002051)    0.0000                   




    VOLTAGE SOURCE CURRENTS
    NAME         CURRENT

    V_V1         0.000E+00

    TOTAL POWER DISSIPATION   0.00E+00  WATTS


**** 01/31/17 08:57:31 ****** PSpice Lite (October 2012) ****** ID# 10813 ****

 ** Profile: "SCHEMATIC1-mc freq"  [ C:\Users\Tiffany\Documents\Engineering\ECE4899 - Senior Design\git_logicals\SPICE schematic\PFE 


 ****     UPDATED MODEL PARAMETERS         TEMPERATURE =   27.000 DEG C

                      MONTE CARLO PASS 11

******************************************************************************



     **** CURRENT MODEL PARAMETERS FOR DEVICES REFERENCING C_C853
                                  C_C853                 
                  C             9.9700E-01  
                               
    
     **** CURRENT MODEL PARAMETERS FOR DEVICES REFERENCING C_C854
                                  C_C854                 
                  C             9.9571E-01  

    
     **** CURRENT MODEL PARAMETERS FOR DEVICES REFERENCING C_C857
                                  C_C857                 
                  C             1.0089E+00  

    
     **** CURRENT MODEL PARAMETERS FOR DEVICES REFERENCING C_C859
                                  C_C859                 
                  C             1.0046E+00  

    
     **** CURRENT MODEL PARAMETERS FOR DEVICES REFERENCING C_C953
                                  C_C953                 
                  C             9.8613E-01  

    
     **** CURRENT MODEL PARAMETERS FOR DEVICES REFERENCING L_L11
                                   L_L11                 
                  L             9.8448E-01  

    
     **** CURRENT MODEL PARAMETERS FOR DEVICES REFERENCING L_L12
                                   L_L12                 
                  L             9.9982E-01  

    
     **** CURRENT MODEL PARAMETERS FOR DEVICES REFERENCING L_L26
                                   L_L26                 
                  L             9.9887E-01  

    
     **** CURRENT MODEL PARAMETERS FOR DEVICES REFERENCING L_L27
                                   L_L27                 
                  L             1.0006E+00  

    
     **** CURRENT MODEL PARAMETERS FOR DEVICES REFERENCING R_R1a
                                   R_R1a                 
                  R             9.9501E-01  

    
     **** CURRENT MODEL PARAMETERS FOR DEVICES REFERENCING R_R1b
                                   R_R1b                 
                  R             1.0070E+00  

    
     **** CURRENT MODEL PARAMETERS FOR DEVICES REFERENCING R_R2
                                   R_R2                  
                  R             1.0042E+00  

    
     **** CURRENT MODEL PARAMETERS FOR DEVICES REFERENCING R_R71
                                   R_R71                 
                  R             1.0159E+00  

    
     **** CURRENT MODEL PARAMETERS FOR DEVICES REFERENCING R_R74
                                   R_R74                 
                  R             1.0011E+00  

    
     **** CURRENT MODEL PARAMETERS FOR DEVICES REFERENCING R_R75
                                   R_R75                 
                  R             9.9192E-01  

    
     **** CURRENT MODEL PARAMETERS FOR DEVICES REFERENCING R_R79
                                   R_R79                 
                  R             1.0342E+00  

    

**** 01/31/17 08:57:31 ****** PSpice Lite (October 2012) ****** ID# 10813 ****

 ** Profile: "SCHEMATIC1-mc freq"  [ C:\Users\Tiffany\Documents\Engineering\ECE4899 - Senior Design\git_logicals\SPICE schematic\PFE 


 ****     SMALL SIGNAL BIAS SOLUTION       TEMPERATURE =   27.000 DEG C

                      MONTE CARLO PASS 12

******************************************************************************



 NODE   VOLTAGE     NODE   VOLTAGE     NODE   VOLTAGE     NODE   VOLTAGE


(N00232)    0.0000 (N01142)    0.0000 (N01860)    0.0000 (N01867)    0.0000     

(N02906)    0.0000 (N02914)    0.0000 (N06779)    0.0000 (N07659)    0.0000     

(N07707)    0.0000 (N002051)    0.0000                   




    VOLTAGE SOURCE CURRENTS
    NAME         CURRENT

    V_V1         0.000E+00

    TOTAL POWER DISSIPATION   0.00E+00  WATTS


**** 01/31/17 08:57:31 ****** PSpice Lite (October 2012) ****** ID# 10813 ****

 ** Profile: "SCHEMATIC1-mc freq"  [ C:\Users\Tiffany\Documents\Engineering\ECE4899 - Senior Design\git_logicals\SPICE schematic\PFE 


 ****     UPDATED MODEL PARAMETERS         TEMPERATURE =   27.000 DEG C

                      MONTE CARLO PASS 12

******************************************************************************



     **** CURRENT MODEL PARAMETERS FOR DEVICES REFERENCING C_C853
                                  C_C853                 
                  C             9.9715E-01  
                               
    
     **** CURRENT MODEL PARAMETERS FOR DEVICES REFERENCING C_C854
                                  C_C854                 
                  C             9.8552E-01  

    
     **** CURRENT MODEL PARAMETERS FOR DEVICES REFERENCING C_C857
                                  C_C857                 
                  C             1.0035E+00  

    
     **** CURRENT MODEL PARAMETERS FOR DEVICES REFERENCING C_C859
                                  C_C859                 
                  C             9.9798E-01  

    
     **** CURRENT MODEL PARAMETERS FOR DEVICES REFERENCING C_C953
                                  C_C953                 
                  C             9.9444E-01  

    
     **** CURRENT MODEL PARAMETERS FOR DEVICES REFERENCING L_L11
                                   L_L11                 
                  L             1.0074E+00  

    
     **** CURRENT MODEL PARAMETERS FOR DEVICES REFERENCING L_L12
                                   L_L12                 
                  L             1.0031E+00  

    
     **** CURRENT MODEL PARAMETERS FOR DEVICES REFERENCING L_L26
                                   L_L26                 
                  L             1.0211E+00  

    
     **** CURRENT MODEL PARAMETERS FOR DEVICES REFERENCING L_L27
                                   L_L27                 
                  L             1.0024E+00  

    
     **** CURRENT MODEL PARAMETERS FOR DEVICES REFERENCING R_R1a
                                   R_R1a                 
                  R             9.9865E-01  

    
     **** CURRENT MODEL PARAMETERS FOR DEVICES REFERENCING R_R1b
                                   R_R1b                 
                  R             9.9018E-01  

    
     **** CURRENT MODEL PARAMETERS FOR DEVICES REFERENCING R_R2
                                   R_R2                  
                  R             9.9157E-01  

    
     **** CURRENT MODEL PARAMETERS FOR DEVICES REFERENCING R_R71
                                   R_R71                 
                  R             9.8647E-01  

    
     **** CURRENT MODEL PARAMETERS FOR DEVICES REFERENCING R_R74
                                   R_R74                 
                  R             1.0080E+00  

    
     **** CURRENT MODEL PARAMETERS FOR DEVICES REFERENCING R_R75
                                   R_R75                 
                  R             9.9581E-01  

    
     **** CURRENT MODEL PARAMETERS FOR DEVICES REFERENCING R_R79
                                   R_R79                 
                  R             9.7296E-01  

    

**** 01/31/17 08:57:31 ****** PSpice Lite (October 2012) ****** ID# 10813 ****

 ** Profile: "SCHEMATIC1-mc freq"  [ C:\Users\Tiffany\Documents\Engineering\ECE4899 - Senior Design\git_logicals\SPICE schematic\PFE 


 ****     SMALL SIGNAL BIAS SOLUTION       TEMPERATURE =   27.000 DEG C

                      MONTE CARLO PASS 13

******************************************************************************



 NODE   VOLTAGE     NODE   VOLTAGE     NODE   VOLTAGE     NODE   VOLTAGE


(N00232)    0.0000 (N01142)    0.0000 (N01860)    0.0000 (N01867)    0.0000     

(N02906)    0.0000 (N02914)    0.0000 (N06779)    0.0000 (N07659)    0.0000     

(N07707)    0.0000 (N002051)    0.0000                   




    VOLTAGE SOURCE CURRENTS
    NAME         CURRENT

    V_V1         0.000E+00

    TOTAL POWER DISSIPATION   0.00E+00  WATTS


**** 01/31/17 08:57:31 ****** PSpice Lite (October 2012) ****** ID# 10813 ****

 ** Profile: "SCHEMATIC1-mc freq"  [ C:\Users\Tiffany\Documents\Engineering\ECE4899 - Senior Design\git_logicals\SPICE schematic\PFE 


 ****     UPDATED MODEL PARAMETERS         TEMPERATURE =   27.000 DEG C

                      MONTE CARLO PASS 13

******************************************************************************



     **** CURRENT MODEL PARAMETERS FOR DEVICES REFERENCING C_C853
                                  C_C853                 
                  C             9.9700E-01  
                               
    
     **** CURRENT MODEL PARAMETERS FOR DEVICES REFERENCING C_C854
                                  C_C854                 
                  C             1.0109E+00  

    
     **** CURRENT MODEL PARAMETERS FOR DEVICES REFERENCING C_C857
                                  C_C857                 
                  C             1.0089E+00  

    
     **** CURRENT MODEL PARAMETERS FOR DEVICES REFERENCING C_C859
                                  C_C859                 
                  C             9.9091E-01  

    
     **** CURRENT MODEL PARAMETERS FOR DEVICES REFERENCING C_C953
                                  C_C953                 
                  C             9.9005E-01  

    
     **** CURRENT MODEL PARAMETERS FOR DEVICES REFERENCING L_L11
                                   L_L11                 
                  L             1.0048E+00  

    
     **** CURRENT MODEL PARAMETERS FOR DEVICES REFERENCING L_L12
                                   L_L12                 
                  L             9.9982E-01  

    
     **** CURRENT MODEL PARAMETERS FOR DEVICES REFERENCING L_L26
                                   L_L26                 
                  L             1.0013E+00  

    
     **** CURRENT MODEL PARAMETERS FOR DEVICES REFERENCING L_L27
                                   L_L27                 
                  L             9.8251E-01  

    
     **** CURRENT MODEL PARAMETERS FOR DEVICES REFERENCING R_R1a
                                   R_R1a                 
                  R             1.0039E+00  

    
     **** CURRENT MODEL PARAMETERS FOR DEVICES REFERENCING R_R1b
                                   R_R1b                 
                  R             1.0070E+00  

    
     **** CURRENT MODEL PARAMETERS FOR DEVICES REFERENCING R_R2
                                   R_R2                  
                  R             1.0080E+00  

    
     **** CURRENT MODEL PARAMETERS FOR DEVICES REFERENCING R_R71
                                   R_R71                 
                  R             9.9725E-01  

    
     **** CURRENT MODEL PARAMETERS FOR DEVICES REFERENCING R_R74
                                   R_R74                 
                  R             1.0011E+00  

    
     **** CURRENT MODEL PARAMETERS FOR DEVICES REFERENCING R_R75
                                   R_R75                 
                  R             9.9524E-01  

    
     **** CURRENT MODEL PARAMETERS FOR DEVICES REFERENCING R_R79
                                   R_R79                 
                  R             1.0148E+00  

    

**** 01/31/17 08:57:31 ****** PSpice Lite (October 2012) ****** ID# 10813 ****

 ** Profile: "SCHEMATIC1-mc freq"  [ C:\Users\Tiffany\Documents\Engineering\ECE4899 - Senior Design\git_logicals\SPICE schematic\PFE 


 ****     SMALL SIGNAL BIAS SOLUTION       TEMPERATURE =   27.000 DEG C

                      MONTE CARLO PASS 14

******************************************************************************



 NODE   VOLTAGE     NODE   VOLTAGE     NODE   VOLTAGE     NODE   VOLTAGE


(N00232)    0.0000 (N01142)    0.0000 (N01860)    0.0000 (N01867)    0.0000     

(N02906)    0.0000 (N02914)    0.0000 (N06779)    0.0000 (N07659)    0.0000     

(N07707)    0.0000 (N002051)    0.0000                   




    VOLTAGE SOURCE CURRENTS
    NAME         CURRENT

    V_V1         0.000E+00

    TOTAL POWER DISSIPATION   0.00E+00  WATTS


**** 01/31/17 08:57:31 ****** PSpice Lite (October 2012) ****** ID# 10813 ****

 ** Profile: "SCHEMATIC1-mc freq"  [ C:\Users\Tiffany\Documents\Engineering\ECE4899 - Senior Design\git_logicals\SPICE schematic\PFE 


 ****     UPDATED MODEL PARAMETERS         TEMPERATURE =   27.000 DEG C

                      MONTE CARLO PASS 14

******************************************************************************



     **** CURRENT MODEL PARAMETERS FOR DEVICES REFERENCING C_C853
                                  C_C853                 
                  C             9.9715E-01  
                               
    
     **** CURRENT MODEL PARAMETERS FOR DEVICES REFERENCING C_C854
                                  C_C854                 
                  C             1.0009E+00  

    
     **** CURRENT MODEL PARAMETERS FOR DEVICES REFERENCING C_C857
                                  C_C857                 
                  C             1.0070E+00  

    
     **** CURRENT MODEL PARAMETERS FOR DEVICES REFERENCING C_C859
                                  C_C859                 
                  C             1.0082E+00  

    
     **** CURRENT MODEL PARAMETERS FOR DEVICES REFERENCING C_C953
                                  C_C953                 
                  C             9.9798E-01  

    
     **** CURRENT MODEL PARAMETERS FOR DEVICES REFERENCING L_L11
                                   L_L11                 
                  L             1.0112E+00  

    
     **** CURRENT MODEL PARAMETERS FOR DEVICES REFERENCING L_L12
                                   L_L12                 
                  L             1.0183E+00  

    
     **** CURRENT MODEL PARAMETERS FOR DEVICES REFERENCING L_L26
                                   L_L26                 
                  L             1.0211E+00  

    
     **** CURRENT MODEL PARAMETERS FOR DEVICES REFERENCING L_L27
                                   L_L27                 
                  L             1.0022E+00  

    
     **** CURRENT MODEL PARAMETERS FOR DEVICES REFERENCING R_R1a
                                   R_R1a                 
                  R             9.9865E-01  

    
     **** CURRENT MODEL PARAMETERS FOR DEVICES REFERENCING R_R1b
                                   R_R1b                 
                  R             9.9018E-01  

    
     **** CURRENT MODEL PARAMETERS FOR DEVICES REFERENCING R_R2
                                   R_R2                  
                  R             1.0001E+00  

    
     **** CURRENT MODEL PARAMETERS FOR DEVICES REFERENCING R_R71
                                   R_R71                 
                  R             9.9030E-01  

    
     **** CURRENT MODEL PARAMETERS FOR DEVICES REFERENCING R_R74
                                   R_R74                 
                  R             1.0017E+00  

    
     **** CURRENT MODEL PARAMETERS FOR DEVICES REFERENCING R_R75
                                   R_R75                 
                  R             1.0102E+00  

    
     **** CURRENT MODEL PARAMETERS FOR DEVICES REFERENCING R_R79
                                   R_R79                 
                  R             1.0140E+00  

    

**** 01/31/17 08:57:31 ****** PSpice Lite (October 2012) ****** ID# 10813 ****

 ** Profile: "SCHEMATIC1-mc freq"  [ C:\Users\Tiffany\Documents\Engineering\ECE4899 - Senior Design\git_logicals\SPICE schematic\PFE 


 ****     SMALL SIGNAL BIAS SOLUTION       TEMPERATURE =   27.000 DEG C

                      MONTE CARLO PASS 15

******************************************************************************



 NODE   VOLTAGE     NODE   VOLTAGE     NODE   VOLTAGE     NODE   VOLTAGE


(N00232)    0.0000 (N01142)    0.0000 (N01860)    0.0000 (N01867)    0.0000     

(N02906)    0.0000 (N02914)    0.0000 (N06779)    0.0000 (N07659)    0.0000     

(N07707)    0.0000 (N002051)    0.0000                   




    VOLTAGE SOURCE CURRENTS
    NAME         CURRENT

    V_V1         0.000E+00

    TOTAL POWER DISSIPATION   0.00E+00  WATTS


**** 01/31/17 08:57:31 ****** PSpice Lite (October 2012) ****** ID# 10813 ****

 ** Profile: "SCHEMATIC1-mc freq"  [ C:\Users\Tiffany\Documents\Engineering\ECE4899 - Senior Design\git_logicals\SPICE schematic\PFE 


 ****     UPDATED MODEL PARAMETERS         TEMPERATURE =   27.000 DEG C

                      MONTE CARLO PASS 15

******************************************************************************



     **** CURRENT MODEL PARAMETERS FOR DEVICES REFERENCING C_C853
                                  C_C853                 
                  C             1.0005E+00  
                               
    
     **** CURRENT MODEL PARAMETERS FOR DEVICES REFERENCING C_C854
                                  C_C854                 
                  C             9.9639E-01  

    
     **** CURRENT MODEL PARAMETERS FOR DEVICES REFERENCING C_C857
                                  C_C857                 
                  C             9.9464E-01  

    
     **** CURRENT MODEL PARAMETERS FOR DEVICES REFERENCING C_C859
                                  C_C859                 
                  C             1.0048E+00  

    
     **** CURRENT MODEL PARAMETERS FOR DEVICES REFERENCING C_C953
                                  C_C953                 
                  C             1.0101E+00  

    
     **** CURRENT MODEL PARAMETERS FOR DEVICES REFERENCING L_L11
                                   L_L11                 
                  L             9.8280E-01  

    
     **** CURRENT MODEL PARAMETERS FOR DEVICES REFERENCING L_L12
                                   L_L12                 
                  L             9.9085E-01  

    
     **** CURRENT MODEL PARAMETERS FOR DEVICES REFERENCING L_L26
                                   L_L26                 
                  L             1.0013E+00  

    
     **** CURRENT MODEL PARAMETERS FOR DEVICES REFERENCING L_L27
                                   L_L27                 
                  L             9.7827E-01  

    
     **** CURRENT MODEL PARAMETERS FOR DEVICES REFERENCING R_R1a
                                   R_R1a                 
                  R             1.0027E+00  

    
     **** CURRENT MODEL PARAMETERS FOR DEVICES REFERENCING R_R1b
                                   R_R1b                 
                  R             1.0010E+00  

    
     **** CURRENT MODEL PARAMETERS FOR DEVICES REFERENCING R_R2
                                   R_R2                  
                  R             1.0147E+00  

    
     **** CURRENT MODEL PARAMETERS FOR DEVICES REFERENCING R_R71
                                   R_R71                 
                  R             1.0031E+00  

    
     **** CURRENT MODEL PARAMETERS FOR DEVICES REFERENCING R_R74
                                   R_R74                 
                  R             1.0063E+00  

    
     **** CURRENT MODEL PARAMETERS FOR DEVICES REFERENCING R_R75
                                   R_R75                 
                  R             9.9524E-01  

    
     **** CURRENT MODEL PARAMETERS FOR DEVICES REFERENCING R_R79
                                   R_R79                 
                  R             9.9005E-01  

    

**** 01/31/17 08:57:31 ****** PSpice Lite (October 2012) ****** ID# 10813 ****

 ** Profile: "SCHEMATIC1-mc freq"  [ C:\Users\Tiffany\Documents\Engineering\ECE4899 - Senior Design\git_logicals\SPICE schematic\PFE 


 ****     SMALL SIGNAL BIAS SOLUTION       TEMPERATURE =   27.000 DEG C

                      MONTE CARLO PASS 16

******************************************************************************



 NODE   VOLTAGE     NODE   VOLTAGE     NODE   VOLTAGE     NODE   VOLTAGE


(N00232)    0.0000 (N01142)    0.0000 (N01860)    0.0000 (N01867)    0.0000     

(N02906)    0.0000 (N02914)    0.0000 (N06779)    0.0000 (N07659)    0.0000     

(N07707)    0.0000 (N002051)    0.0000                   




    VOLTAGE SOURCE CURRENTS
    NAME         CURRENT

    V_V1         0.000E+00

    TOTAL POWER DISSIPATION   0.00E+00  WATTS


**** 01/31/17 08:57:31 ****** PSpice Lite (October 2012) ****** ID# 10813 ****

 ** Profile: "SCHEMATIC1-mc freq"  [ C:\Users\Tiffany\Documents\Engineering\ECE4899 - Senior Design\git_logicals\SPICE schematic\PFE 


 ****     UPDATED MODEL PARAMETERS         TEMPERATURE =   27.000 DEG C

                      MONTE CARLO PASS 16

******************************************************************************



     **** CURRENT MODEL PARAMETERS FOR DEVICES REFERENCING C_C853
                                  C_C853                 
                  C             1.0081E+00  
                               
    
     **** CURRENT MODEL PARAMETERS FOR DEVICES REFERENCING C_C854
                                  C_C854                 
                  C             1.0009E+00  

    
     **** CURRENT MODEL PARAMETERS FOR DEVICES REFERENCING C_C857
                                  C_C857                 
                  C             9.8980E-01  

    
     **** CURRENT MODEL PARAMETERS FOR DEVICES REFERENCING C_C859
                                  C_C859                 
                  C             1.0082E+00  

    
     **** CURRENT MODEL PARAMETERS FOR DEVICES REFERENCING C_C953
                                  C_C953                 
                  C             9.9798E-01  

    
     **** CURRENT MODEL PARAMETERS FOR DEVICES REFERENCING L_L11
                                   L_L11                 
                  L             9.9197E-01  

    
     **** CURRENT MODEL PARAMETERS FOR DEVICES REFERENCING L_L12
                                   L_L12                 
                  L             9.8692E-01  

    
     **** CURRENT MODEL PARAMETERS FOR DEVICES REFERENCING L_L26
                                   L_L26                 
                  L             1.0211E+00  

    
     **** CURRENT MODEL PARAMETERS FOR DEVICES REFERENCING L_L27
                                   L_L27                 
                  L             1.0090E+00  

    
     **** CURRENT MODEL PARAMETERS FOR DEVICES REFERENCING R_R1a
                                   R_R1a                 
                  R             9.9865E-01  

    
     **** CURRENT MODEL PARAMETERS FOR DEVICES REFERENCING R_R1b
                                   R_R1b                 
                  R             9.9018E-01  

    
     **** CURRENT MODEL PARAMETERS FOR DEVICES REFERENCING R_R2
                                   R_R2                  
                  R             1.0001E+00  

    
     **** CURRENT MODEL PARAMETERS FOR DEVICES REFERENCING R_R71
                                   R_R71                 
                  R             9.9540E-01  

    
     **** CURRENT MODEL PARAMETERS FOR DEVICES REFERENCING R_R74
                                   R_R74                 
                  R             1.0054E+00  

    
     **** CURRENT MODEL PARAMETERS FOR DEVICES REFERENCING R_R75
                                   R_R75                 
                  R             1.0102E+00  

    
     **** CURRENT MODEL PARAMETERS FOR DEVICES REFERENCING R_R79
                                   R_R79                 
                  R             1.0013E+00  

    

**** 01/31/17 08:57:31 ****** PSpice Lite (October 2012) ****** ID# 10813 ****

 ** Profile: "SCHEMATIC1-mc freq"  [ C:\Users\Tiffany\Documents\Engineering\ECE4899 - Senior Design\git_logicals\SPICE schematic\PFE 


 ****     SMALL SIGNAL BIAS SOLUTION       TEMPERATURE =   27.000 DEG C

                      MONTE CARLO PASS 17

******************************************************************************



 NODE   VOLTAGE     NODE   VOLTAGE     NODE   VOLTAGE     NODE   VOLTAGE


(N00232)    0.0000 (N01142)    0.0000 (N01860)    0.0000 (N01867)    0.0000     

(N02906)    0.0000 (N02914)    0.0000 (N06779)    0.0000 (N07659)    0.0000     

(N07707)    0.0000 (N002051)    0.0000                   




    VOLTAGE SOURCE CURRENTS
    NAME         CURRENT

    V_V1         0.000E+00

    TOTAL POWER DISSIPATION   0.00E+00  WATTS


**** 01/31/17 08:57:31 ****** PSpice Lite (October 2012) ****** ID# 10813 ****

 ** Profile: "SCHEMATIC1-mc freq"  [ C:\Users\Tiffany\Documents\Engineering\ECE4899 - Senior Design\git_logicals\SPICE schematic\PFE 


 ****     UPDATED MODEL PARAMETERS         TEMPERATURE =   27.000 DEG C

                      MONTE CARLO PASS 17

******************************************************************************



     **** CURRENT MODEL PARAMETERS FOR DEVICES REFERENCING C_C853
                                  C_C853                 
                  C             1.0017E+00  
                               
    
     **** CURRENT MODEL PARAMETERS FOR DEVICES REFERENCING C_C854
                                  C_C854                 
                  C             9.9639E-01  

    
     **** CURRENT MODEL PARAMETERS FOR DEVICES REFERENCING C_C857
                                  C_C857                 
                  C             9.9464E-01  

    
     **** CURRENT MODEL PARAMETERS FOR DEVICES REFERENCING C_C859
                                  C_C859                 
                  C             9.9566E-01  

    
     **** CURRENT MODEL PARAMETERS FOR DEVICES REFERENCING C_C953
                                  C_C953                 
                  C             1.0101E+00  

    
     **** CURRENT MODEL PARAMETERS FOR DEVICES REFERENCING L_L11
                                   L_L11                 
                  L             1.0166E+00  

    
     **** CURRENT MODEL PARAMETERS FOR DEVICES REFERENCING L_L12
                                   L_L12                 
                  L             9.8755E-01  

    
     **** CURRENT MODEL PARAMETERS FOR DEVICES REFERENCING L_L26
                                   L_L26                 
                  L             1.0132E+00  

    
     **** CURRENT MODEL PARAMETERS FOR DEVICES REFERENCING L_L27
                                   L_L27                 
                  L             1.0027E+00  

    
     **** CURRENT MODEL PARAMETERS FOR DEVICES REFERENCING R_R1a
                                   R_R1a                 
                  R             9.8512E-01  

    
     **** CURRENT MODEL PARAMETERS FOR DEVICES REFERENCING R_R1b
                                   R_R1b                 
                  R             9.8787E-01  

    
     **** CURRENT MODEL PARAMETERS FOR DEVICES REFERENCING R_R2
                                   R_R2                  
                  R             1.0147E+00  

    
     **** CURRENT MODEL PARAMETERS FOR DEVICES REFERENCING R_R71
                                   R_R71                 
                  R             9.8586E-01  

    
     **** CURRENT MODEL PARAMETERS FOR DEVICES REFERENCING R_R74
                                   R_R74                 
                  R             1.0079E+00  

    
     **** CURRENT MODEL PARAMETERS FOR DEVICES REFERENCING R_R75
                                   R_R75                 
                  R             1.0024E+00  

    
     **** CURRENT MODEL PARAMETERS FOR DEVICES REFERENCING R_R79
                                   R_R79                 
                  R             9.9005E-01  

    

**** 01/31/17 08:57:31 ****** PSpice Lite (October 2012) ****** ID# 10813 ****

 ** Profile: "SCHEMATIC1-mc freq"  [ C:\Users\Tiffany\Documents\Engineering\ECE4899 - Senior Design\git_logicals\SPICE schematic\PFE 


 ****     SMALL SIGNAL BIAS SOLUTION       TEMPERATURE =   27.000 DEG C

                      MONTE CARLO PASS 18

******************************************************************************



 NODE   VOLTAGE     NODE   VOLTAGE     NODE   VOLTAGE     NODE   VOLTAGE


(N00232)    0.0000 (N01142)    0.0000 (N01860)    0.0000 (N01867)    0.0000     

(N02906)    0.0000 (N02914)    0.0000 (N06779)    0.0000 (N07659)    0.0000     

(N07707)    0.0000 (N002051)    0.0000                   




    VOLTAGE SOURCE CURRENTS
    NAME         CURRENT

    V_V1         0.000E+00

    TOTAL POWER DISSIPATION   0.00E+00  WATTS


**** 01/31/17 08:57:31 ****** PSpice Lite (October 2012) ****** ID# 10813 ****

 ** Profile: "SCHEMATIC1-mc freq"  [ C:\Users\Tiffany\Documents\Engineering\ECE4899 - Senior Design\git_logicals\SPICE schematic\PFE 


 ****     UPDATED MODEL PARAMETERS         TEMPERATURE =   27.000 DEG C

                      MONTE CARLO PASS 18

******************************************************************************



     **** CURRENT MODEL PARAMETERS FOR DEVICES REFERENCING C_C853
                                  C_C853                 
                  C             1.0152E+00  
                               
    
     **** CURRENT MODEL PARAMETERS FOR DEVICES REFERENCING C_C854
                                  C_C854                 
                  C             1.0009E+00  

    
     **** CURRENT MODEL PARAMETERS FOR DEVICES REFERENCING C_C857
                                  C_C857                 
                  C             9.8980E-01  

    
     **** CURRENT MODEL PARAMETERS FOR DEVICES REFERENCING C_C859
                                  C_C859                 
                  C             9.9418E-01  

    
     **** CURRENT MODEL PARAMETERS FOR DEVICES REFERENCING C_C953
                                  C_C953                 
                  C             1.0087E+00  

    
     **** CURRENT MODEL PARAMETERS FOR DEVICES REFERENCING L_L11
                                   L_L11                 
                  L             9.9872E-01  

    
     **** CURRENT MODEL PARAMETERS FOR DEVICES REFERENCING L_L12
                                   L_L12                 
                  L             9.8852E-01  

    
     **** CURRENT MODEL PARAMETERS FOR DEVICES REFERENCING L_L26
                                   L_L26                 
                  L             9.8943E-01  

    
     **** CURRENT MODEL PARAMETERS FOR DEVICES REFERENCING L_L27
                                   L_L27                 
                  L             1.0045E+00  

    
     **** CURRENT MODEL PARAMETERS FOR DEVICES REFERENCING R_R1a
                                   R_R1a                 
                  R             9.9905E-01  

    
     **** CURRENT MODEL PARAMETERS FOR DEVICES REFERENCING R_R1b
                                   R_R1b                 
                  R             9.9018E-01  

    
     **** CURRENT MODEL PARAMETERS FOR DEVICES REFERENCING R_R2
                                   R_R2                  
                  R             1.0001E+00  

    
     **** CURRENT MODEL PARAMETERS FOR DEVICES REFERENCING R_R71
                                   R_R71                 
                  R             1.0003E+00  

    
     **** CURRENT MODEL PARAMETERS FOR DEVICES REFERENCING R_R74
                                   R_R74                 
                  R             1.0054E+00  

    
     **** CURRENT MODEL PARAMETERS FOR DEVICES REFERENCING R_R75
                                   R_R75                 
                  R             1.0102E+00  

    
     **** CURRENT MODEL PARAMETERS FOR DEVICES REFERENCING R_R79
                                   R_R79                 
                  R             9.9735E-01  

    

**** 01/31/17 08:57:31 ****** PSpice Lite (October 2012) ****** ID# 10813 ****

 ** Profile: "SCHEMATIC1-mc freq"  [ C:\Users\Tiffany\Documents\Engineering\ECE4899 - Senior Design\git_logicals\SPICE schematic\PFE 


 ****     SMALL SIGNAL BIAS SOLUTION       TEMPERATURE =   27.000 DEG C

                      MONTE CARLO PASS 19

******************************************************************************



 NODE   VOLTAGE     NODE   VOLTAGE     NODE   VOLTAGE     NODE   VOLTAGE


(N00232)    0.0000 (N01142)    0.0000 (N01860)    0.0000 (N01867)    0.0000     

(N02906)    0.0000 (N02914)    0.0000 (N06779)    0.0000 (N07659)    0.0000     

(N07707)    0.0000 (N002051)    0.0000                   




    VOLTAGE SOURCE CURRENTS
    NAME         CURRENT

    V_V1         0.000E+00

    TOTAL POWER DISSIPATION   0.00E+00  WATTS


**** 01/31/17 08:57:31 ****** PSpice Lite (October 2012) ****** ID# 10813 ****

 ** Profile: "SCHEMATIC1-mc freq"  [ C:\Users\Tiffany\Documents\Engineering\ECE4899 - Senior Design\git_logicals\SPICE schematic\PFE 


 ****     UPDATED MODEL PARAMETERS         TEMPERATURE =   27.000 DEG C

                      MONTE CARLO PASS 19

******************************************************************************



     **** CURRENT MODEL PARAMETERS FOR DEVICES REFERENCING C_C853
                                  C_C853                 
                  C             1.0015E+00  
                               
    
     **** CURRENT MODEL PARAMETERS FOR DEVICES REFERENCING C_C854
                                  C_C854                 
                  C             9.9639E-01  

    
[...]
                  R             1.0041E+00  

    
     **** CURRENT MODEL PARAMETERS FOR DEVICES REFERENCING R_R71
                                   R_R71                 
                  R             9.8194E-01  

    
     **** CURRENT MODEL PARAMETERS FOR DEVICES REFERENCING R_R74
                                   R_R74                 
                  R             9.9126E-01  

    
     **** CURRENT MODEL PARAMETERS FOR DEVICES REFERENCING R_R75
                                   R_R75                 
                  R             9.9882E-01  

    
     **** CURRENT MODEL PARAMETERS FOR DEVICES REFERENCING R_R79
                                   R_R79                 
                  R             1.0107E+00  

    

**** 01/31/17 08:57:31 ****** PSpice Lite (October 2012) ****** ID# 10813 ****

 ** Profile: "SCHEMATIC1-mc freq"  [ C:\Users\Tiffany\Documents\Engineering\ECE4899 - Senior Design\git_logicals\SPICE schematic\PFE 


 ****     SMALL SIGNAL BIAS SOLUTION       TEMPERATURE =   27.000 DEG C

                      MONTE CARLO PASS 98

******************************************************************************



 NODE   VOLTAGE     NODE   VOLTAGE     NODE   VOLTAGE     NODE   VOLTAGE


(N00232)    0.0000 (N01142)    0.0000 (N01860)    0.0000 (N01867)    0.0000     

(N02906)    0.0000 (N02914)    0.0000 (N06779)    0.0000 (N07659)    0.0000     

(N07707)    0.0000 (N002051)    0.0000                   




    VOLTAGE SOURCE CURRENTS
    NAME         CURRENT

    V_V1         0.000E+00

    TOTAL POWER DISSIPATION   0.00E+00  WATTS


**** 01/31/17 08:57:31 ****** PSpice Lite (October 2012) ****** ID# 10813 ****

 ** Profile: "SCHEMATIC1-mc freq"  [ C:\Users\Tiffany\Documents\Engineering\ECE4899 - Senior Design\git_logicals\SPICE schematic\PFE 


 ****     UPDATED MODEL PARAMETERS         TEMPERATURE =   27.000 DEG C

                      MONTE CARLO PASS 98

******************************************************************************



     **** CURRENT MODEL PARAMETERS FOR DEVICES REFERENCING C_C853
                                  C_C853                 
                  C             9.9736E-01  
                               
    
     **** CURRENT MODEL PARAMETERS FOR DEVICES REFERENCING C_C854
                                  C_C854                 
                  C             1.0069E+00  

    
     **** CURRENT MODEL PARAMETERS FOR DEVICES REFERENCING C_C857
                                  C_C857                 
                  C             9.9965E-01  

    
     **** CURRENT MODEL PARAMETERS FOR DEVICES REFERENCING C_C859
                                  C_C859                 
                  C             1.0042E+00  

    
     **** CURRENT MODEL PARAMETERS FOR DEVICES REFERENCING C_C953
                                  C_C953                 
                  C             1.0122E+00  

    
     **** CURRENT MODEL PARAMETERS FOR DEVICES REFERENCING L_L11
                                   L_L11                 
                  L             9.7380E-01  

    
     **** CURRENT MODEL PARAMETERS FOR DEVICES REFERENCING L_L12
                                   L_L12                 
                  L             1.0136E+00  

    
     **** CURRENT MODEL PARAMETERS FOR DEVICES REFERENCING L_L26
                                   L_L26                 
                  L             9.8804E-01  

    
     **** CURRENT MODEL PARAMETERS FOR DEVICES REFERENCING L_L27
                                   L_L27                 
                  L             1.0165E+00  

    
     **** CURRENT MODEL PARAMETERS FOR DEVICES REFERENCING R_R1a
                                   R_R1a                 
                  R             1.0194E+00  

    
     **** CURRENT MODEL PARAMETERS FOR DEVICES REFERENCING R_R1b
                                   R_R1b                 
                  R             9.9702E-01  

    
     **** CURRENT MODEL PARAMETERS FOR DEVICES REFERENCING R_R2
                                   R_R2                  
                  R             1.0006E+00  

    
     **** CURRENT MODEL PARAMETERS FOR DEVICES REFERENCING R_R71
                                   R_R71                 
                  R             1.0086E+00  

    
     **** CURRENT MODEL PARAMETERS FOR DEVICES REFERENCING R_R74
                                   R_R74                 
                  R             1.0029E+00  

    
     **** CURRENT MODEL PARAMETERS FOR DEVICES REFERENCING R_R75
                                   R_R75                 
                  R             9.8474E-01  

    
     **** CURRENT MODEL PARAMETERS FOR DEVICES REFERENCING R_R79
                                   R_R79                 
                  R             1.0095E+00  

    

**** 01/31/17 08:57:31 ****** PSpice Lite (October 2012) ****** ID# 10813 ****

 ** Profile: "SCHEMATIC1-mc freq"  [ C:\Users\Tiffany\Documents\Engineering\ECE4899 - Senior Design\git_logicals\SPICE schematic\PFE 


 ****     SMALL SIGNAL BIAS SOLUTION       TEMPERATURE =   27.000 DEG C

                      MONTE CARLO PASS 99

******************************************************************************



 NODE   VOLTAGE     NODE   VOLTAGE     NODE   VOLTAGE     NODE   VOLTAGE


(N00232)    0.0000 (N01142)    0.0000 (N01860)    0.0000 (N01867)    0.0000     

(N02906)    0.0000 (N02914)    0.0000 (N06779)    0.0000 (N07659)    0.0000     

(N07707)    0.0000 (N002051)    0.0000                   




    VOLTAGE SOURCE CURRENTS
    NAME         CURRENT

    V_V1         0.000E+00

    TOTAL POWER DISSIPATION   0.00E+00  WATTS


**** 01/31/17 08:57:31 ****** PSpice Lite (October 2012) ****** ID# 10813 ****

 ** Profile: "SCHEMATIC1-mc freq"  [ C:\Users\Tiffany\Documents\Engineering\ECE4899 - Senior Design\git_logicals\SPICE schematic\PFE 


 ****     UPDATED MODEL PARAMETERS         TEMPERATURE =   27.000 DEG C

                      MONTE CARLO PASS 99

******************************************************************************



     **** CURRENT MODEL PARAMETERS FOR DEVICES REFERENCING C_C853
                                  C_C853                 
                  C             1.0206E+00  
                               
    
     **** CURRENT MODEL PARAMETERS FOR DEVICES REFERENCING C_C854
                                  C_C854                 
                  C             9.9541E-01  

    
     **** CURRENT MODEL PARAMETERS FOR DEVICES REFERENCING C_C857
                                  C_C857                 
                  C             9.8310E-01  

    
     **** CURRENT MODEL PARAMETERS FOR DEVICES REFERENCING C_C859
                                  C_C859                 
                  C             9.9554E-01  

    
     **** CURRENT MODEL PARAMETERS FOR DEVICES REFERENCING C_C953
                                  C_C953                 
                  C             1.0108E+00  

    
     **** CURRENT MODEL PARAMETERS FOR DEVICES REFERENCING L_L11
                                   L_L11                 
                  L             1.0021E+00  

    
     **** CURRENT MODEL PARAMETERS FOR DEVICES REFERENCING L_L12
                                   L_L12                 
                  L             9.8962E-01  

    
     **** CURRENT MODEL PARAMETERS FOR DEVICES REFERENCING L_L26
                                   L_L26                 
                  L             1.0047E+00  

    
     **** CURRENT MODEL PARAMETERS FOR DEVICES REFERENCING L_L27
                                   L_L27                 
                  L             1.0024E+00  

    
     **** CURRENT MODEL PARAMETERS FOR DEVICES REFERENCING R_R1a
                                   R_R1a                 
                  R             1.0147E+00  

    
     **** CURRENT MODEL PARAMETERS FOR DEVICES REFERENCING R_R1b
                                   R_R1b                 
                  R             1.0013E+00  

    
     **** CURRENT MODEL PARAMETERS FOR DEVICES REFERENCING R_R2
                                   R_R2                  
                  R             1.0035E+00  

    
     **** CURRENT MODEL PARAMETERS FOR DEVICES REFERENCING R_R71
                                   R_R71                 
                  R             1.0044E+00  

    
     **** CURRENT MODEL PARAMETERS FOR DEVICES REFERENCING R_R74
                                   R_R74                 
                  R             9.9126E-01  

    
     **** CURRENT MODEL PARAMETERS FOR DEVICES REFERENCING R_R75
                                   R_R75                 
                  R             9.9363E-01  

    
     **** CURRENT MODEL PARAMETERS FOR DEVICES REFERENCING R_R79
                                   R_R79                 
                  R             9.9129E-01  

    

**** 01/31/17 08:57:31 ****** PSpice Lite (October 2012) ****** ID# 10813 ****

 ** Profile: "SCHEMATIC1-mc freq"  [ C:\Users\Tiffany\Documents\Engineering\ECE4899 - Senior Design\git_logicals\SPICE schematic\PFE 


 ****     SMALL SIGNAL BIAS SOLUTION       TEMPERATURE =   27.000 DEG C

                      MONTE CARLO PASS 100

******************************************************************************



 NODE   VOLTAGE     NODE   VOLTAGE     NODE   VOLTAGE     NODE   VOLTAGE


(N00232)    0.0000 (N01142)    0.0000 (N01860)    0.0000 (N01867)    0.0000     

(N02906)    0.0000 (N02914)    0.0000 (N06779)    0.0000 (N07659)    0.0000     

(N07707)    0.0000 (N002051)    0.0000                   




    VOLTAGE SOURCE CURRENTS
    NAME         CURRENT

    V_V1         0.000E+00

    TOTAL POWER DISSIPATION   0.00E+00  WATTS


**** 01/31/17 08:57:31 ****** PSpice Lite (October 2012) ****** ID# 10813 ****

 ** Profile: "SCHEMATIC1-mc freq"  [ C:\Users\Tiffany\Documents\Engineering\ECE4899 - Senior Design\git_logicals\SPICE schematic\PFE 


 ****     UPDATED MODEL PARAMETERS         TEMPERATURE =   27.000 DEG C

                      MONTE CARLO PASS 100

******************************************************************************



     **** CURRENT MODEL PARAMETERS FOR DEVICES REFERENCING C_C853
                                  C_C853                 
                  C             1.0006E+00  
                               
    
     **** CURRENT MODEL PARAMETERS FOR DEVICES REFERENCING C_C854
                                  C_C854                 
                  C             1.0069E+00  

    
     **** CURRENT MODEL PARAMETERS FOR DEVICES REFERENCING C_C857
                                  C_C857                 
                  C             9.9483E-01  

    
     **** CURRENT MODEL PARAMETERS FOR DEVICES REFERENCING C_C859
                                  C_C859                 
                  C             1.0036E+00  

    
     **** CURRENT MODEL PARAMETERS FOR DEVICES REFERENCING C_C953
                                  C_C953                 
                  C             1.0120E+00  

    
     **** CURRENT MODEL PARAMETERS FOR DEVICES REFERENCING L_L11
                                   L_L11                 
                  L             1.0067E+00  

    
     **** CURRENT MODEL PARAMETERS FOR DEVICES REFERENCING L_L12
                                   L_L12                 
                  L             9.9449E-01  

    
     **** CURRENT MODEL PARAMETERS FOR DEVICES REFERENCING L_L26
                                   L_L26                 
                  L             9.9556E-01  

    
     **** CURRENT MODEL PARAMETERS FOR DEVICES REFERENCING L_L27
                                   L_L27                 
                  L             1.0165E+00  

    
     **** CURRENT MODEL PARAMETERS FOR DEVICES REFERENCING R_R1a
                                   R_R1a                 
                  R             9.9105E-01  

    
     **** CURRENT MODEL PARAMETERS FOR DEVICES REFERENCING R_R1b
                                   R_R1b                 
                  R             9.8037E-01  

    
     **** CURRENT MODEL PARAMETERS FOR DEVICES REFERENCING R_R2
                                   R_R2                  
                  R             1.0006E+00  

    
     **** CURRENT MODEL PARAMETERS FOR DEVICES REFERENCING R_R71
                                   R_R71                 
                  R             9.8533E-01  

    
     **** CURRENT MODEL PARAMETERS FOR DEVICES REFERENCING R_R74
                                   R_R74                 
                  R             1.0029E+00  

    
     **** CURRENT MODEL PARAMETERS FOR DEVICES REFERENCING R_R75
                                   R_R75                 
                  R             9.9804E-01  

    
     **** CURRENT MODEL PARAMETERS FOR DEVICES REFERENCING R_R79
                                   R_R79                 
                  R             9.9471E-01  

    

**** 01/31/17 08:57:31 ****** PSpice Lite (October 2012) ****** ID# 10813 ****

 ** Profile: "SCHEMATIC1-mc freq"  [ C:\Users\Tiffany\Documents\Engineering\ECE4899 - Senior Design\git_logicals\SPICE schematic\PFE 


 ****     SORTED DEVIATIONS OF V(0)        TEMPERATURE =   27.000 DEG C

                      MONTE CARLO SUMMARY

******************************************************************************





Mean Deviation =    0     
Sigma          =    0     

 RUN                    MAX DEVIATION FROM NOMINAL

Pass    2               0       unchanged  at F =    0     

Pass    3               0       unchanged  at F =    0     

Pass    4               0       unchanged  at F =    0     

Pass    5               0       unchanged  at F =    0     

Pass    6               0       unchanged  at F =    0     

Pass    7               0       unchanged  at F =    0     

Pass    8               0       unchanged  at F =    0     

Pass    9               0       unchanged  at F =    0     

Pass   10               0       unchanged  at F =    0     

Pass   11               0       unchanged  at F =    0     

Pass   12               0       unchanged  at F =    0     

Pass   13               0       unchanged  at F =    0     

Pass   14               0       unchanged  at F =    0     

Pass   15               0       unchanged  at F =    0     

Pass   16               0       unchanged  at F =    0     

Pass   17               0       unchanged  at F =    0     

Pass   18               0       unchanged  at F =    0     

Pass   19               0       unchanged  at F =    0     

Pass   20               0       unchanged  at F =    0     

Pass   21               0       unchanged  at F =    0     

Pass   22               0       unchanged  at F =    0     

Pass   23               0       unchanged  at F =    0     

Pass   24               0       unchanged  at F =    0     

Pass   25               0       unchanged  at F =    0     

Pass   26               0       unchanged  at F =    0     

Pass   27               0       unchanged  at F =    0     

Pass   28               0       unchanged  at F =    0     

Pass   29               0       unchanged  at F =    0     

Pass   30               0       unchanged  at F =    0     

Pass   31               0       unchanged  at F =    0     

Pass   32               0       unchanged  at F =    0     

Pass   33               0       unchanged  at F =    0     

Pass   34               0       unchanged  at F =    0     

Pass   35               0       unchanged  at F =    0     

Pass   36               0       unchanged  at F =    0     

Pass   37               0       unchanged  at F =    0     

Pass   38               0       unchanged  at F =    0     

Pass   39               0       unchanged  at F =    0     

Pass   40               0       unchanged  at F =    0     

Pass   41               0       unchanged  at F =    0     

Pass   42               0       unchanged  at F =    0     

Pass   43               0       unchanged  at F =    0     

Pass   44               0       unchanged  at F =    0     

Pass   45               0       unchanged  at F =    0     

Pass   46               0       unchanged  at F =    0     

Pass   47               0       unchanged  at F =    0     

Pass   48               0       unchanged  at F =    0     

Pass   49               0       unchanged  at F =    0     

Pass   50               0       unchanged  at F =    0     

Pass   51               0       unchanged  at F =    0     

Pass   52               0       unchanged  at F =    0     

Pass   53               0       unchanged  at F =    0     

Pass   54               0       unchanged  at F =    0     

Pass   55               0       unchanged  at F =    0     

Pass   56               0       unchanged  at F =    0     

Pass   57               0       unchanged  at F =    0     

Pass   58               0       unchanged  at F =    0     

Pass   59               0       unchanged  at F =    0     

Pass   60               0       unchanged  at F =    0     

Pass   61               0       unchanged  at F =    0     

Pass   62               0       unchanged  at F =    0     

Pass   63               0       unchanged  at F =    0     

Pass   64               0       unchanged  at F =    0     

Pass   65               0       unchanged  at F =    0     

Pass   66               0       unchanged  at F =    0     

Pass   67               0       unchanged  at F =    0     

Pass   68               0       unchanged  at F =    0     

Pass   69               0       unchanged  at F =    0     

Pass   70               0       unchanged  at F =    0     

Pass   71               0       unchanged  at F =    0     

Pass   72               0       unchanged  at F =    0     

Pass   73               0       unchanged  at F =    0     

Pass   74               0       unchanged  at F =    0     

Pass   75               0       unchanged  at F =    0     

Pass   76               0       unchanged  at F =    0     

Pass   77               0       unchanged  at F =    0     

Pass   78               0       unchanged  at F =    0     

Pass   79               0       unchanged  at F =    0     

Pass   80               0       unchanged  at F =    0     

Pass   81               0       unchanged  at F =    0     

Pass   82               0       unchanged  at F =    0     

Pass   83               0       unchanged  at F =    0     

Pass   84               0       unchanged  at F =    0     

Pass   85               0       unchanged  at F =    0     

Pass   86               0       unchanged  at F =    0     

Pass   87               0       unchanged  at F =    0     

Pass   88               0       unchanged  at F =    0     

Pass   89               0       unchanged  at F =    0     

Pass   90               0       unchanged  at F =    0     

Pass   91               0       unchanged  at F =    0     

Pass   92               0       unchanged  at F =    0     

Pass   93               0       unchanged  at F =    0     

Pass   94               0       unchanged  at F =    0     

Pass   95               0       unchanged  at F =    0     

Pass   96               0       unchanged  at F =    0     

Pass   97               0       unchanged  at F =    0     

Pass   98               0       unchanged  at F =    0     

Pass   99               0       unchanged  at F =    0     

Pass  100               0       unchanged  at F =    0     



          JOB CONCLUDED

**** 01/31/17 08:57:31 ****** PSpice Lite (October 2012) ****** ID# 10813 ****

 ** Profile: "SCHEMATIC1-mc freq"  [ C:\Users\Tiffany\Documents\Engineering\ECE4899 - Senior Design\git_logicals\SPICE schematic\PFE 


 ****     JOB STATISTICS SUMMARY


******************************************************************************



  Total job time (using Solver 1)   =        5.56
