
**** 01/21/17 13:46:45 ****** PSpice Lite (October 2012) ****** ID# 10813 ****

 ** Profile: "SCHEMATIC1-mc test"  [ C:\Users\Tiffany\Documents\Engineering\ECE4899 - Senior Design\Pspice dummy files\rc test-PSpice


 ****     CIRCUIT DESCRIPTION


******************************************************************************




** Creating circuit file "mc test.cir" 
** WARNING: THIS AUTOMATICALLY GENERATED FILE MAY BE OVERWRITTEN BY SUBSEQUENT SIMULATIONS

*Libraries: 
* Profile Libraries :
* Local Libraries :
* From [PSPICE NETLIST] section of C:\Users\Tiffany\AppData\Roaming\SPB_16.6\cdssetup\OrCAD_PSpice/16.6.0/PSpice.ini file:
.lib "nomd.lib" 

*Analysis directives: 
.TRAN  0 2ns 0 
.MC 10 TRAN V([N02150]) YMAX LIST OUTPUT ALL SEED=17366 
.OPTIONS DISTRIBUTION GAUSS
.OPTIONS ADVCONV
.PROBE64 V(alias(*)) I(alias(*)) W(alias(*)) D(alias(*)) NOISE(alias(*)) 
.INC "..\SCHEMATIC1.net" 



**** INCLUDING SCHEMATIC1.net ****
* source RC TEST
C_C857         N00232 N002051 C_C857 100p  TC=0,0 
.model        C_C857 CAP C=1 DEV=1% TC1=0 TC2=0 VC1=0 VC2=0
R_R75         0 N00232 R_R75 93.1 TC=0,0 
.model        R_R75 RES R=1 DEV=1% TC1=0 TC2=0
R_R79         N01142 N00232 R_R79 93.1 TC=0,0 
.model        R_R79 RES R=1 DEV=1% TC1=0 TC2=0
R_R74         0 N01142 R_R74 93.1 TC=0,0 
.model        R_R74 RES R=1 DEV=1% TC1=0 TC2=0
L_L11         N01142 N01860 L_L11 10nH  
.model        l_L11 IND L=1 DEV=1% TC1=0 TC2=0 IL1=0 IL2=0
L_L12         0 N01867 L_L12 10nH  
.model        l_L12 IND L=1 DEV=1% TC1=0 TC2=0 IL1=0 IL2=0
Kn_K1         L_L11 L_L12     1 Kbreak
C_C953         N01860 N01867 C_C953 1p  TC=0,0 
.model        C_C953 CAP C=1 DEV=1% TC1=0 TC2=0 VC1=0 VC2=0
L_L26         N01860 N02150 L_L26 1nH  
.model        l_L26 IND L=1 DEV=1% TC1=0 TC2=0 IL1=0 IL2=0
V_V1         N06779 0  AC 1
+SIN 0 3 1.9G 0 0 0
L_L27         N01867 N02150 L_L27 1nH  
.model        l_L27 IND L=1 DEV=1% TC1=0 TC2=0 IL1=0 IL2=0
R_R71         N02150 N02150 R_R71 93.1 TC=0,0 
.model        R_R71 RES R=1 DEV=1% TC1=0 TC2=0
C_C853         0 N02150 C_C853 100p  TC=0,0 
.model        C_C853 CAP C=1 DEV=1% TC1=0 TC2=0 VC1=0 VC2=0
C_C854         0 N02150 C_C854 100p  TC=0,0 
.model        C_C854 CAP C=1 DEV=1% TC1=0 TC2=0 VC1=0 VC2=0
R_R1b         N07707 N002051 R_R1b 2.0137 TC=0,0 
.model        R_R1b RES R=1 DEV=1% TC1=0 TC2=0
R_R1a         N07659 N07707 R_R1a 2.0137 TC=0,0 
.model        R_R1a RES R=1 DEV=1% TC1=0 TC2=0
R_R2         0 N07707 R_R2 619.75 TC=0,0 
.model        R_R2 RES R=1 DEV=1% TC1=0 TC2=0
C_C859         N07659 N06779 C_C859 100p  TC=0,0 
.model        C_C859 CAP C=1 DEV=1% TC1=0 TC2=0 VC1=0 VC2=0

**** RESUMING "mc test.cir" ****
.END

**** 01/21/17 13:46:45 ****** PSpice Lite (October 2012) ****** ID# 10813 ****

 ** Profile: "SCHEMATIC1-mc test"  [ C:\Users\Tiffany\Documents\Engineering\ECE4899 - Senior Design\Pspice dummy files\rc test-PSpice


 ****     Resistor MODEL PARAMETERS


******************************************************************************




               R_R75           R_R79           R_R74           R_R71           
           R    1               1               1               1            


               R_R1b           R_R1a           R_R2            
           R    1               1               1            


**** 01/21/17 13:46:45 ****** PSpice Lite (October 2012) ****** ID# 10813 ****

 ** Profile: "SCHEMATIC1-mc test"  [ C:\Users\Tiffany\Documents\Engineering\ECE4899 - Senior Design\Pspice dummy files\rc test-PSpice


 ****     Capacitor MODEL PARAMETERS


******************************************************************************




               C_C857          C_C953          C_C853          C_C854          
           C    1               1               1               1            


               C_C859          
           C    1            


**** 01/21/17 13:46:45 ****** PSpice Lite (October 2012) ****** ID# 10813 ****

 ** Profile: "SCHEMATIC1-mc test"  [ C:\Users\Tiffany\Documents\Engineering\ECE4899 - Senior Design\Pspice dummy files\rc test-PSpice


 ****     Inductor MODEL PARAMETERS


******************************************************************************




               L_L11           L_L12           L_L26           L_L27           
           L    1               1               1               1            


**** 01/21/17 13:46:45 ****** PSpice Lite (October 2012) ****** ID# 10813 ****

 ** Profile: "SCHEMATIC1-mc test"  [ C:\Users\Tiffany\Documents\Engineering\ECE4899 - Senior Design\Pspice dummy files\rc test-PSpice


 ****     Ferromagnetic Core MODEL PARAMETERS


******************************************************************************




               Kbreak          
       LEVEL    2            
        AREA     .65         
        PATH    8            
          MS    1.289600E+06 
           A    2.712800E+03 
           C     .25001      


**** 01/21/17 13:46:45 ****** PSpice Lite (October 2012) ****** ID# 10813 ****

 ** Profile: "SCHEMATIC1-mc test"  [ C:\Users\Tiffany\Documents\Engineering\ECE4899 - Senior Design\Pspice dummy files\rc test-PSpice


 ****     INITIAL TRANSIENT SOLUTION       TEMPERATURE =   27.000 DEG C

                      MONTE CARLO NOMINAL

******************************************************************************



 NODE   VOLTAGE     NODE   VOLTAGE     NODE   VOLTAGE     NODE   VOLTAGE


(N00232)    0.0000 (N01142)    0.0000 (N01860)    0.0000 (N01867)    0.0000     

(N02150)    0.0000 (N06779)    0.0000 (N07659)    0.0000 (N07707)    0.0000     

(N002051)    0.0000                   




    VOLTAGE SOURCE CURRENTS
    NAME         CURRENT

    V_V1         0.000E+00

    TOTAL POWER DISSIPATION   0.00E+00  WATTS


**** 01/21/17 13:46:45 ****** PSpice Lite (October 2012) ****** ID# 10813 ****

 ** Profile: "SCHEMATIC1-mc test"  [ C:\Users\Tiffany\Documents\Engineering\ECE4899 - Senior Design\Pspice dummy files\rc test-PSpice


 ****     UPDATED MODEL PARAMETERS         TEMPERATURE =   27.000 DEG C

                      MONTE CARLO NOMINAL

******************************************************************************



     **** CURRENT MODEL PARAMETERS FOR DEVICES REFERENCING C_C853
                                  C_C853                 
                  C             1.0000E+00  
                               
    
     **** CURRENT MODEL PARAMETERS FOR DEVICES REFERENCING C_C854
                                  C_C854                 
                  C             1.0000E+00  

    
     **** CURRENT MODEL PARAMETERS FOR DEVICES REFERENCING C_C857
                                  C_C857                 
                  C             1.0000E+00  

    
     **** CURRENT MODEL PARAMETERS FOR DEVICES REFERENCING C_C859
                                  C_C859                 
                  C             1.0000E+00  

    
     **** CURRENT MODEL PARAMETERS FOR DEVICES REFERENCING C_C953
                                  C_C953                 
                  C             1.0000E+00  

    
     **** CURRENT MODEL PARAMETERS FOR DEVICES REFERENCING L_L11
                                   L_L11                 
                  L             1.0000E+00  

    
     **** CURRENT MODEL PARAMETERS FOR DEVICES REFERENCING L_L12
                                   L_L12                 
                  L             1.0000E+00  

    
     **** CURRENT MODEL PARAMETERS FOR DEVICES REFERENCING L_L26
                                   L_L26                 
                  L             1.0000E+00  

    
     **** CURRENT MODEL PARAMETERS FOR DEVICES REFERENCING L_L27
                                   L_L27                 
                  L             1.0000E+00  

    
     **** CURRENT MODEL PARAMETERS FOR DEVICES REFERENCING R_R1a
                                   R_R1a                 
                  R             1.0000E+00  

    
     **** CURRENT MODEL PARAMETERS FOR DEVICES REFERENCING R_R1b
                                   R_R1b                 
                  R             1.0000E+00  

    
     **** CURRENT MODEL PARAMETERS FOR DEVICES REFERENCING R_R2
                                   R_R2                  
                  R             1.0000E+00  

    
     **** CURRENT MODEL PARAMETERS FOR DEVICES REFERENCING R_R71
                                   R_R71                 
                  R             1.0000E+00  

    
     **** CURRENT MODEL PARAMETERS FOR DEVICES REFERENCING R_R74
                                   R_R74                 
                  R             1.0000E+00  

    
     **** CURRENT MODEL PARAMETERS FOR DEVICES REFERENCING R_R75
                                   R_R75                 
                  R             1.0000E+00  

    
     **** CURRENT MODEL PARAMETERS FOR DEVICES REFERENCING R_R79
                                   R_R79                 
                  R             1.0000E+00  

    

**** 01/21/17 13:46:45 ****** PSpice Lite (October 2012) ****** ID# 10813 ****

 ** Profile: "SCHEMATIC1-mc test"  [ C:\Users\Tiffany\Documents\Engineering\ECE4899 - Senior Design\Pspice dummy files\rc test-PSpice


 ****     INITIAL TRANSIENT SOLUTION       TEMPERATURE =   27.000 DEG C

                      MONTE CARLO PASS 2

******************************************************************************



 NODE   VOLTAGE     NODE   VOLTAGE     NODE   VOLTAGE     NODE   VOLTAGE


(N00232)    0.0000 (N01142)    0.0000 (N01860)    0.0000 (N01867)    0.0000     

(N02150)    0.0000 (N06779)    0.0000 (N07659)    0.0000 (N07707)    0.0000     

(N002051)    0.0000                   




    VOLTAGE SOURCE CURRENTS
    NAME         CURRENT

    V_V1         0.000E+00

    TOTAL POWER DISSIPATION   0.00E+00  WATTS


**** 01/21/17 13:46:45 ****** PSpice Lite (October 2012) ****** ID# 10813 ****

 ** Profile: "SCHEMATIC1-mc test"  [ C:\Users\Tiffany\Documents\Engineering\ECE4899 - Senior Design\Pspice dummy files\rc test-PSpice


 ****     UPDATED MODEL PARAMETERS         TEMPERATURE =   27.000 DEG C

                      MONTE CARLO PASS 2

******************************************************************************



     **** CURRENT MODEL PARAMETERS FOR DEVICES REFERENCING C_C853
                                  C_C853                 
                  C             1.0115E+00  
                               
    
     **** CURRENT MODEL PARAMETERS FOR DEVICES REFERENCING C_C854
                                  C_C854                 
                  C             9.9943E-01  

    
     **** CURRENT MODEL PARAMETERS FOR DEVICES REFERENCING C_C857
                                  C_C857                 
                  C             9.9597E-01  

    
     **** CURRENT MODEL PARAMETERS FOR DEVICES REFERENCING C_C859
                                  C_C859                 
                  C             1.0129E+00  

    
     **** CURRENT MODEL PARAMETERS FOR DEVICES REFERENCING C_C953
                                  C_C953                 
                  C             1.0084E+00  

    
     **** CURRENT MODEL PARAMETERS FOR DEVICES REFERENCING L_L11
                                   L_L11                 
                  L             9.9940E-01  

    
     **** CURRENT MODEL PARAMETERS FOR DEVICES REFERENCING L_L12
                                   L_L12                 
                  L             1.0002E+00  

    
     **** CURRENT MODEL PARAMETERS FOR DEVICES REFERENCING L_L26
                                   L_L26                 
                  L             1.0077E+00  

    
     **** CURRENT MODEL PARAMETERS FOR DEVICES REFERENCING L_L27
                                   L_L27                 
                  L             1.0054E+00  

    
     **** CURRENT MODEL PARAMETERS FOR DEVICES REFERENCING R_R1a
                                   R_R1a                 
                  R             1.0114E+00  

    
     **** CURRENT MODEL PARAMETERS FOR DEVICES REFERENCING R_R1b
                                   R_R1b                 
                  R             9.9202E-01  

    
     **** CURRENT MODEL PARAMETERS FOR DEVICES REFERENCING R_R2
                                   R_R2                  
                  R             1.0031E+00  

    
     **** CURRENT MODEL PARAMETERS FOR DEVICES REFERENCING R_R71
                                   R_R71                 
                  R             9.9793E-01  

    
     **** CURRENT MODEL PARAMETERS FOR DEVICES REFERENCING R_R74
                                   R_R74                 
                  R             9.8992E-01  

    
     **** CURRENT MODEL PARAMETERS FOR DEVICES REFERENCING R_R75
                                   R_R75                 
                  R             9.9973E-01  

    
     **** CURRENT MODEL PARAMETERS FOR DEVICES REFERENCING R_R79
                                   R_R79                 
                  R             9.9690E-01  

    

**** 01/21/17 13:46:45 ****** PSpice Lite (October 2012) ****** ID# 10813 ****

 ** Profile: "SCHEMATIC1-mc test"  [ C:\Users\Tiffany\Documents\Engineering\ECE4899 - Senior Design\Pspice dummy files\rc test-PSpice


 ****     INITIAL TRANSIENT SOLUTION       TEMPERATURE =   27.000 DEG C

                      MONTE CARLO PASS 3

******************************************************************************



 NODE   VOLTAGE     NODE   VOLTAGE     NODE   VOLTAGE     NODE   VOLTAGE


(N00232)    0.0000 (N01142)    0.0000 (N01860)    0.0000 (N01867)    0.0000     

(N02150)    0.0000 (N06779)    0.0000 (N07659)    0.0000 (N07707)    0.0000     

(N002051)    0.0000                   




    VOLTAGE SOURCE CURRENTS
    NAME         CURRENT

    V_V1         0.000E+00

    TOTAL POWER DISSIPATION   0.00E+00  WATTS


**** 01/21/17 13:46:45 ****** PSpice Lite (October 2012) ****** ID# 10813 ****

 ** Profile: "SCHEMATIC1-mc test"  [ C:\Users\Tiffany\Documents\Engineering\ECE4899 - Senior Design\Pspice dummy files\rc test-PSpice


 ****     UPDATED MODEL PARAMETERS         TEMPERATURE =   27.000 DEG C

                      MONTE CARLO PASS 3

******************************************************************************



     **** CURRENT MODEL PARAMETERS FOR DEVICES REFERENCING C_C853
                                  C_C853                 
                  C             1.0038E+00  
                               
    
     **** CURRENT MODEL PARAMETERS FOR DEVICES REFERENCING C_C854
                                  C_C854                 
                  C             9.7426E-01  

    
     **** CURRENT MODEL PARAMETERS FOR DEVICES REFERENCING C_C857
                                  C_C857                 
                  C             1.0038E+00  

    
     **** CURRENT MODEL PARAMETERS FOR DEVICES REFERENCING C_C859
                                  C_C859                 
                  C             1.0096E+00  

    
     **** CURRENT MODEL PARAMETERS FOR DEVICES REFERENCING C_C953
                                  C_C953                 
                  C             9.8324E-01  

    
     **** CURRENT MODEL PARAMETERS FOR DEVICES REFERENCING L_L11
                                   L_L11                 
                  L             1.0205E+00  

    
     **** CURRENT MODEL PARAMETERS FOR DEVICES REFERENCING L_L12
                                   L_L12                 
                  L             1.0064E+00  

    
     **** CURRENT MODEL PARAMETERS FOR DEVICES REFERENCING L_L26
                                   L_L26                 
                  L             9.8701E-01  

    
     **** CURRENT MODEL PARAMETERS FOR DEVICES REFERENCING L_L27
                                   L_L27                 
                  L             9.9827E-01  

    
     **** CURRENT MODEL PARAMETERS FOR DEVICES REFERENCING R_R1a
                                   R_R1a                 
                  R             9.9385E-01  

    
     **** CURRENT MODEL PARAMETERS FOR DEVICES REFERENCING R_R1b
                                   R_R1b                 
                  R             1.0033E+00  

    
     **** CURRENT MODEL PARAMETERS FOR DEVICES REFERENCING R_R2
                                   R_R2                  
                  R             1.0127E+00  

    
     **** CURRENT MODEL PARAMETERS FOR DEVICES REFERENCING R_R71
                                   R_R71                 
                  R             9.8606E-01  

    
     **** CURRENT MODEL PARAMETERS FOR DEVICES REFERENCING R_R74
                                   R_R74                 
                  R             9.9686E-01  

    
     **** CURRENT MODEL PARAMETERS FOR DEVICES REFERENCING R_R75
                                   R_R75                 
                  R             9.9015E-01  

    
     **** CURRENT MODEL PARAMETERS FOR DEVICES REFERENCING R_R79
                                   R_R79                 
                  R             1.0147E+00  

    

**** 01/21/17 13:46:45 ****** PSpice Lite (October 2012) ****** ID# 10813 ****

 ** Profile: "SCHEMATIC1-mc test"  [ C:\Users\Tiffany\Documents\Engineering\ECE4899 - Senior Design\Pspice dummy files\rc test-PSpice


 ****     INITIAL TRANSIENT SOLUTION       TEMPERATURE =   27.000 DEG C

                      MONTE CARLO PASS 4

******************************************************************************



 NODE   VOLTAGE     NODE   VOLTAGE     NODE   VOLTAGE     NODE   VOLTAGE


(N00232)    0.0000 (N01142)    0.0000 (N01860)    0.0000 (N01867)    0.0000     

(N02150)    0.0000 (N06779)    0.0000 (N07659)    0.0000 (N07707)    0.0000     

(N002051)    0.0000                   




    VOLTAGE SOURCE CURRENTS
    NAME         CURRENT

    V_V1         0.000E+00

    TOTAL POWER DISSIPATION   0.00E+00  WATTS


**** 01/21/17 13:46:45 ****** PSpice Lite (October 2012) ****** ID# 10813 ****

 ** Profile: "SCHEMATIC1-mc test"  [ C:\Users\Tiffany\Documents\Engineering\ECE4899 - Senior Design\Pspice dummy files\rc test-PSpice


 ****     UPDATED MODEL PARAMETERS         TEMPERATURE =   27.000 DEG C

                      MONTE CARLO PASS 4

******************************************************************************



     **** CURRENT MODEL PARAMETERS FOR DEVICES REFERENCING C_C853
                                  C_C853                 
                  C             9.9298E-01  
                               
    
     **** CURRENT MODEL PARAMETERS FOR DEVICES REFERENCING C_C854
                                  C_C854                 
                  C             1.0180E+00  

    
     **** CURRENT MODEL PARAMETERS FOR DEVICES REFERENCING C_C857
                                  C_C857                 
                  C             1.0190E+00  

    
     **** CURRENT MODEL PARAMETERS FOR DEVICES REFERENCING C_C859
                                  C_C859                 
                  C             1.0129E+00  

    
     **** CURRENT MODEL PARAMETERS FOR DEVICES REFERENCING C_C953
                                  C_C953                 
                  C             1.0038E+00  

    
     **** CURRENT MODEL PARAMETERS FOR DEVICES REFERENCING L_L11
                                   L_L11                 
                  L             1.0015E+00  

    
     **** CURRENT MODEL PARAMETERS FOR DEVICES REFERENCING L_L12
                                   L_L12                 
                  L             1.0014E+00  

    
     **** CURRENT MODEL PARAMETERS FOR DEVICES REFERENCING L_L26
                                   L_L26                 
                  L             9.9943E-01  

    
     **** CURRENT MODEL PARAMETERS FOR DEVICES REFERENCING L_L27
                                   L_L27                 
                  L             1.0054E+00  

    
     **** CURRENT MODEL PARAMETERS FOR DEVICES REFERENCING R_R1a
                                   R_R1a                 
                  R             1.0054E+00  

    
     **** CURRENT MODEL PARAMETERS FOR DEVICES REFERENCING R_R1b
                                   R_R1b                 
                  R             1.0089E+00  

    
     **** CURRENT MODEL PARAMETERS FOR DEVICES REFERENCING R_R2
                                   R_R2                  
                  R             1.0031E+00  

    
     **** CURRENT MODEL PARAMETERS FOR DEVICES REFERENCING R_R71
                                   R_R71                 
                  R             1.0062E+00  

    
     **** CURRENT MODEL PARAMETERS FOR DEVICES REFERENCING R_R74
                                   R_R74                 
                  R             9.8992E-01  

    
     **** CURRENT MODEL PARAMETERS FOR DEVICES REFERENCING R_R75
                                   R_R75                 
                  R             1.0019E+00  

    
     **** CURRENT MODEL PARAMETERS FOR DEVICES REFERENCING R_R79
                                   R_R79                 
                  R             9.8784E-01  

    

**** 01/21/17 13:46:45 ****** PSpice Lite (October 2012) ****** ID# 10813 ****

 ** Profile: "SCHEMATIC1-mc test"  [ C:\Users\Tiffany\Documents\Engineering\ECE4899 - Senior Design\Pspice dummy files\rc test-PSpice


 ****     INITIAL TRANSIENT SOLUTION       TEMPERATURE =   27.000 DEG C

                      MONTE CARLO PASS 5

******************************************************************************



 NODE   VOLTAGE     NODE   VOLTAGE     NODE   VOLTAGE     NODE   VOLTAGE


(N00232)    0.0000 (N01142)    0.0000 (N01860)    0.0000 (N01867)    0.0000     

(N02150)    0.0000 (N06779)    0.0000 (N07659)    0.0000 (N07707)    0.0000     

(N002051)    0.0000                   




    VOLTAGE SOURCE CURRENTS
    NAME         CURRENT

    V_V1         0.000E+00

    TOTAL POWER DISSIPATION   0.00E+00  WATTS


**** 01/21/17 13:46:45 ****** PSpice Lite (October 2012) ****** ID# 10813 ****

 ** Profile: "SCHEMATIC1-mc test"  [ C:\Users\Tiffany\Documents\Engineering\ECE4899 - Senior Design\Pspice dummy files\rc test-PSpice


 ****     UPDATED MODEL PARAMETERS         TEMPERATURE =   27.000 DEG C

                      MONTE CARLO PASS 5

******************************************************************************



     **** CURRENT MODEL PARAMETERS FOR DEVICES REFERENCING C_C853
                                  C_C853                 
                  C             9.9103E-01  
                               
    
     **** CURRENT MODEL PARAMETERS FOR DEVICES REFERENCING C_C854
                                  C_C854                 
                  C             9.7874E-01  

    
     **** CURRENT MODEL PARAMETERS FOR DEVICES REFERENCING C_C857
                                  C_C857                 
                  C             1.0114E+00  

    
     **** CURRENT MODEL PARAMETERS FOR DEVICES REFERENCING C_C859
                                  C_C859                 
                  C             1.0096E+00  

    
     **** CURRENT MODEL PARAMETERS FOR DEVICES REFERENCING C_C953
                                  C_C953                 
                  C             9.9726E-01  

    
     **** CURRENT MODEL PARAMETERS FOR DEVICES REFERENCING L_L11
                                   L_L11                 
                  L             1.0029E+00  

    
     **** CURRENT MODEL PARAMETERS FOR DEVICES REFERENCING L_L12
                                   L_L12                 
                  L             1.0076E+00  

    
     **** CURRENT MODEL PARAMETERS FOR DEVICES REFERENCING L_L26
                                   L_L26                 
                  L             9.8701E-01  

    
     **** CURRENT MODEL PARAMETERS FOR DEVICES REFERENCING L_L27
                                   L_L27                 
                  L             9.9827E-01  

    
     **** CURRENT MODEL PARAMETERS FOR DEVICES REFERENCING R_R1a
                                   R_R1a                 
                  R             1.0060E+00  

    
     **** CURRENT MODEL PARAMETERS FOR DEVICES REFERENCING R_R1b
                                   R_R1b                 
                  R             1.0165E+00  

    
     **** CURRENT MODEL PARAMETERS FOR DEVICES REFERENCING R_R2
                                   R_R2                  
                  R             1.0127E+00  

    
     **** CURRENT MODEL PARAMETERS FOR DEVICES REFERENCING R_R71
                                   R_R71                 
                  R             1.0001E+00  

    
     **** CURRENT MODEL PARAMETERS FOR DEVICES REFERENCING R_R74
                                   R_R74                 
                  R             1.0065E+00  

    
     **** CURRENT MODEL PARAMETERS FOR DEVICES REFERENCING R_R75
                                   R_R75                 
                  R             9.8209E-01  

    
     **** CURRENT MODEL PARAMETERS FOR DEVICES REFERENCING R_R79
                                   R_R79                 
                  R             9.9479E-01  

    

**** 01/21/17 13:46:45 ****** PSpice Lite (October 2012) ****** ID# 10813 ****

 ** Profile: "SCHEMATIC1-mc test"  [ C:\Users\Tiffany\Documents\Engineering\ECE4899 - Senior Design\Pspice dummy files\rc test-PSpice


 ****     INITIAL TRANSIENT SOLUTION       TEMPERATURE =   27.000 DEG C

                      MONTE CARLO PASS 6

******************************************************************************



 NODE   VOLTAGE     NODE   VOLTAGE     NODE   VOLTAGE     NODE   VOLTAGE


(N00232)    0.0000 (N01142)    0.0000 (N01860)    0.0000 (N01867)    0.0000     

(N02150)    0.0000 (N06779)    0.0000 (N07659)    0.0000 (N07707)    0.0000     

(N002051)    0.0000                   




    VOLTAGE SOURCE CURRENTS
    NAME         CURRENT

    V_V1         0.000E+00

    TOTAL POWER DISSIPATION   0.00E+00  WATTS


**** 01/21/17 13:46:45 ****** PSpice Lite (October 2012) ****** ID# 10813 ****

 ** Profile: "SCHEMATIC1-mc test"  [ C:\Users\Tiffany\Documents\Engineering\ECE4899 - Senior Design\Pspice dummy files\rc test-PSpice


 ****     UPDATED MODEL PARAMETERS         TEMPERATURE =   27.000 DEG C

                      MONTE CARLO PASS 6

******************************************************************************



     **** CURRENT MODEL PARAMETERS FOR DEVICES REFERENCING C_C853
                                  C_C853                 
                  C             9.9253E-01  
                               
    
     **** CURRENT MODEL PARAMETERS FOR DEVICES REFERENCING C_C854
                                  C_C854                 
                  C             1.0161E+00  

    
     **** CURRENT MODEL PARAMETERS FOR DEVICES REFERENCING C_C857
                                  C_C857                 
                  C             9.9528E-01  

    
     **** CURRENT MODEL PARAMETERS FOR DEVICES REFERENCING C_C859
                                  C_C859                 
                  C             9.9490E-01  

    
     **** CURRENT MODEL PARAMETERS FOR DEVICES REFERENCING C_C953
                                  C_C953                 
                  C             9.9584E-01  

    
     **** CURRENT MODEL PARAMETERS FOR DEVICES REFERENCING L_L11
                                   L_L11                 
                  L             9.9456E-01  

    
     **** CURRENT MODEL PARAMETERS FOR DEVICES REFERENCING L_L12
                                   L_L12                 
                  L             1.0147E+00  

    
     **** CURRENT MODEL PARAMETERS FOR DEVICES REFERENCING L_L26
                                   L_L26                 
                  L             9.9943E-01  

    
     **** CURRENT MODEL PARAMETERS FOR DEVICES REFERENCING L_L27
                                   L_L27                 
                  L             1.0054E+00  

    
     **** CURRENT MODEL PARAMETERS FOR DEVICES REFERENCING R_R1a
                                   R_R1a                 
                  R             9.8282E-01  

    
     **** CURRENT MODEL PARAMETERS FOR DEVICES REFERENCING R_R1b
                                   R_R1b                 
                  R             9.7647E-01  

    
     **** CURRENT MODEL PARAMETERS FOR DEVICES REFERENCING R_R2
                                   R_R2                  
                  R             9.9652E-01  

    
     **** CURRENT MODEL PARAMETERS FOR DEVICES REFERENCING R_R71
                                   R_R71                 
                  R             1.0143E+00  

    
     **** CURRENT MODEL PARAMETERS FOR DEVICES REFERENCING R_R74
                                   R_R74                 
                  R             1.0154E+00  

    
     **** CURRENT MODEL PARAMETERS FOR DEVICES REFERENCING R_R75
                                   R_R75                 
                  R             1.0115E+00  

    
     **** CURRENT MODEL PARAMETERS FOR DEVICES REFERENCING R_R79
                                   R_R79                 
                  R             1.0060E+00  

    

**** 01/21/17 13:46:45 ****** PSpice Lite (October 2012) ****** ID# 10813 ****

 ** Profile: "SCHEMATIC1-mc test"  [ C:\Users\Tiffany\Documents\Engineering\ECE4899 - Senior Design\Pspice dummy files\rc test-PSpice


 ****     INITIAL TRANSIENT SOLUTION       TEMPERATURE =   27.000 DEG C

                      MONTE CARLO PASS 7

******************************************************************************



 NODE   VOLTAGE     NODE   VOLTAGE     NODE   VOLTAGE     NODE   VOLTAGE


(N00232)    0.0000 (N01142)    0.0000 (N01860)    0.0000 (N01867)    0.0000     

(N02150)    0.0000 (N06779)    0.0000 (N07659)    0.0000 (N07707)    0.0000     

(N002051)    0.0000                   




    VOLTAGE SOURCE CURRENTS
    NAME         CURRENT

    V_V1         0.000E+00

    TOTAL POWER DISSIPATION   0.00E+00  WATTS


**** 01/21/17 13:46:45 ****** PSpice Lite (October 2012) ****** ID# 10813 ****

 ** Profile: "SCHEMATIC1-mc test"  [ C:\Users\Tiffany\Documents\Engineering\ECE4899 - Senior Design\Pspice dummy files\rc test-PSpice


 ****     UPDATED MODEL PARAMETERS         TEMPERATURE =   27.000 DEG C

                      MONTE CARLO PASS 7

******************************************************************************



     **** CURRENT MODEL PARAMETERS FOR DEVICES REFERENCING C_C853
                                  C_C853                 
                  C             1.0144E+00  
                               
    
     **** CURRENT MODEL PARAMETERS FOR DEVICES REFERENCING C_C854
                                  C_C854                 
                  C             9.7833E-01  

    
     **** CURRENT MODEL PARAMETERS FOR DEVICES REFERENCING C_C857
                                  C_C857                 
                  C             9.9339E-01  

    
     **** CURRENT MODEL PARAMETERS FOR DEVICES REFERENCING C_C859
                                  C_C859                 
                  C             9.9126E-01  

    
     **** CURRENT MODEL PARAMETERS FOR DEVICES REFERENCING C_C953
                                  C_C953                 
                  C             9.9726E-01  

    
     **** CURRENT MODEL PARAMETERS FOR DEVICES REFERENCING L_L11
                                   L_L11                 
                  L             1.0029E+00  

    
     **** CURRENT MODEL PARAMETERS FOR DEVICES REFERENCING L_L12
                                   L_L12                 
                  L             9.8843E-01  

    
     **** CURRENT MODEL PARAMETERS FOR DEVICES REFERENCING L_L26
                                   L_L26                 
                  L             9.8701E-01  

    
     **** CURRENT MODEL PARAMETERS FOR DEVICES REFERENCING L_L27
                                   L_L27                 
                  L             1.0097E+00  

    
     **** CURRENT MODEL PARAMETERS FOR DEVICES REFERENCING R_R1a
                                   R_R1a                 
                  R             9.9504E-01  

    
     **** CURRENT MODEL PARAMETERS FOR DEVICES REFERENCING R_R1b
                                   R_R1b                 
                  R             1.0165E+00  

    
     **** CURRENT MODEL PARAMETERS FOR DEVICES REFERENCING R_R2
                                   R_R2                  
                  R             9.9537E-01  

    
     **** CURRENT MODEL PARAMETERS FOR DEVICES REFERENCING R_R71
                                   R_R71                 
                  R             1.0001E+00  

    
     **** CURRENT MODEL PARAMETERS FOR DEVICES REFERENCING R_R74
                                   R_R74                 
                  R             9.8916E-01  

    
     **** CURRENT MODEL PARAMETERS FOR DEVICES REFERENCING R_R75
                                   R_R75                 
                  R             9.8646E-01  

    
     **** CURRENT MODEL PARAMETERS FOR DEVICES REFERENCING R_R79
                                   R_R79                 
                  R             9.9644E-01  

    

**** 01/21/17 13:46:45 ****** PSpice Lite (October 2012) ****** ID# 10813 ****

 ** Profile: "SCHEMATIC1-mc test"  [ C:\Users\Tiffany\Documents\Engineering\ECE4899 - Senior Design\Pspice dummy files\rc test-PSpice


 ****     INITIAL TRANSIENT SOLUTION       TEMPERATURE =   27.000 DEG C

                      MONTE CARLO PASS 8

******************************************************************************



 NODE   VOLTAGE     NODE   VOLTAGE     NODE   VOLTAGE     NODE   VOLTAGE


(N00232)    0.0000 (N01142)    0.0000 (N01860)    0.0000 (N01867)    0.0000     

(N02150)    0.0000 (N06779)    0.0000 (N07659)    0.0000 (N07707)    0.0000     

(N002051)    0.0000                   




    VOLTAGE SOURCE CURRENTS
    NAME         CURRENT

    V_V1         0.000E+00

    TOTAL POWER DISSIPATION   0.00E+00  WATTS


**** 01/21/17 13:46:45 ****** PSpice Lite (October 2012) ****** ID# 10813 ****

 ** Profile: "SCHEMATIC1-mc test"  [ C:\Users\Tiffany\Documents\Engineering\ECE4899 - Senior Design\Pspice dummy files\rc test-PSpice


 ****     UPDATED MODEL PARAMETERS         TEMPERATURE =   27.000 DEG C

                      MONTE CARLO PASS 8

******************************************************************************



     **** CURRENT MODEL PARAMETERS FOR DEVICES REFERENCING C_C853
                                  C_C853                 
                  C             9.9413E-01  
                               
    
     **** CURRENT MODEL PARAMETERS FOR DEVICES REFERENCING C_C854
                                  C_C854                 
                  C             1.0040E+00  

    
     **** CURRENT MODEL PARAMETERS FOR DEVICES REFERENCING C_C857
                                  C_C857                 
                  C             1.0033E+00  

    
     **** CURRENT MODEL PARAMETERS FOR DEVICES REFERENCING C_C859
                                  C_C859                 
                  C             1.0070E+00  

    
     **** CURRENT MODEL PARAMETERS FOR DEVICES REFERENCING C_C953
                                  C_C953                 
                  C             1.0103E+00  

    
     **** CURRENT MODEL PARAMETERS FOR DEVICES REFERENCING L_L11
                                   L_L11                 
                  L             1.0046E+00  

    
     **** CURRENT MODEL PARAMETERS FOR DEVICES REFERENCING L_L12
                                   L_L12                 
                  L             1.0003E+00  

    
     **** CURRENT MODEL PARAMETERS FOR DEVICES REFERENCING L_L26
                                   L_L26                 
                  L             9.9459E-01  

    
     **** CURRENT MODEL PARAMETERS FOR DEVICES REFERENCING L_L27
                                   L_L27                 
                  L             9.9443E-01  

    
     **** CURRENT MODEL PARAMETERS FOR DEVICES REFERENCING R_R1a
                                   R_R1a                 
                  R             9.8282E-01  

    
     **** CURRENT MODEL PARAMETERS FOR DEVICES REFERENCING R_R1b
                                   R_R1b                 
                  R             9.7647E-01  

    
     **** CURRENT MODEL PARAMETERS FOR DEVICES REFERENCING R_R2
                                   R_R2                  
                  R             1.0116E+00  

    
     **** CURRENT MODEL PARAMETERS FOR DEVICES REFERENCING R_R71
                                   R_R71                 
                  R             1.0143E+00  

    
     **** CURRENT MODEL PARAMETERS FOR DEVICES REFERENCING R_R74
                                   R_R74                 
                  R             9.9546E-01  

    
     **** CURRENT MODEL PARAMETERS FOR DEVICES REFERENCING R_R75
                                   R_R75                 
                  R             9.9113E-01  

    
     **** CURRENT MODEL PARAMETERS FOR DEVICES REFERENCING R_R79
                                   R_R79                 
                  R             1.0062E+00  

    

**** 01/21/17 13:46:45 ****** PSpice Lite (October 2012) ****** ID# 10813 ****

 ** Profile: "SCHEMATIC1-mc test"  [ C:\Users\Tiffany\Documents\Engineering\ECE4899 - Senior Design\Pspice dummy files\rc test-PSpice


 ****     INITIAL TRANSIENT SOLUTION       TEMPERATURE =   27.000 DEG C

                      MONTE CARLO PASS 9

******************************************************************************



 NODE   VOLTAGE     NODE   VOLTAGE     NODE   VOLTAGE     NODE   VOLTAGE


(N00232)    0.0000 (N01142)    0.0000 (N01860)    0.0000 (N01867)    0.0000     

(N02150)    0.0000 (N06779)    0.0000 (N07659)    0.0000 (N07707)    0.0000     

(N002051)    0.0000                   




    VOLTAGE SOURCE CURRENTS
    NAME         CURRENT

    V_V1         0.000E+00

    TOTAL POWER DISSIPATION   0.00E+00  WATTS


**** 01/21/17 13:46:45 ****** PSpice Lite (October 2012) ****** ID# 10813 ****

 ** Profile: "SCHEMATIC1-mc test"  [ C:\Users\Tiffany\Documents\Engineering\ECE4899 - Senior Design\Pspice dummy files\rc test-PSpice


 ****     UPDATED MODEL PARAMETERS         TEMPERATURE =   27.000 DEG C

                      MONTE CARLO PASS 9

******************************************************************************



     **** CURRENT MODEL PARAMETERS FOR DEVICES REFERENCING C_C853
                                  C_C853                 
                  C             1.0027E+00  
                               
    
     **** CURRENT MODEL PARAMETERS FOR DEVICES REFERENCING C_C854
                                  C_C854                 
                  C             1.0000E+00  

    
     **** CURRENT MODEL PARAMETERS FOR DEVICES REFERENCING C_C857
                                  C_C857                 
                  C             9.9948E-01  

    
     **** CURRENT MODEL PARAMETERS FOR DEVICES REFERENCING C_C859
                                  C_C859                 
                  C             1.0031E+00  

    
     **** CURRENT MODEL PARAMETERS FOR DEVICES REFERENCING C_C953
                                  C_C953                 
                  C             9.9144E-01  

    
     **** CURRENT MODEL PARAMETERS FOR DEVICES REFERENCING L_L11
                                   L_L11                 
                  L             1.0036E+00  

    
     **** CURRENT MODEL PARAMETERS FOR DEVICES REFERENCING L_L12
                                   L_L12                 
                  L             9.8843E-01  

    
     **** CURRENT MODEL PARAMETERS FOR DEVICES REFERENCING L_L26
                                   L_L26                 
                  L             1.0075E+00  

    
     **** CURRENT MODEL PARAMETERS FOR DEVICES REFERENCING L_L27
                                   L_L27                 
                  L             1.0097E+00  

    
     **** CURRENT MODEL PARAMETERS FOR DEVICES REFERENCING R_R1a
                                   R_R1a                 
                  R             9.8946E-01  

    
     **** CURRENT MODEL PARAMETERS FOR DEVICES REFERENCING R_R1b
                                   R_R1b                 
                  R             1.0165E+00  

    
     **** CURRENT MODEL PARAMETERS FOR DEVICES REFERENCING R_R2
                                   R_R2                  
                  R             9.9537E-01  

    
     **** CURRENT MODEL PARAMETERS FOR DEVICES REFERENCING R_R71
                                   R_R71                 
                  R             9.9370E-01  

    
     **** CURRENT MODEL PARAMETERS FOR DEVICES REFERENCING R_R74
                                   R_R74                 
                  R             9.8674E-01  

    
     **** CURRENT MODEL PARAMETERS FOR DEVICES REFERENCING R_R75
                                   R_R75                 
                  R             9.9382E-01  

    
     **** CURRENT MODEL PARAMETERS FOR DEVICES REFERENCING R_R79
                                   R_R79                 
                  R             1.0058E+00  

    

**** 01/21/17 13:46:45 ****** PSpice Lite (October 2012) ****** ID# 10813 ****

 ** Profile: "SCHEMATIC1-mc test"  [ C:\Users\Tiffany\Documents\Engineering\ECE4899 - Senior Design\Pspice dummy files\rc test-PSpice


 ****     INITIAL TRANSIENT SOLUTION       TEMPERATURE =   27.000 DEG C

                      MONTE CARLO PASS 10

******************************************************************************



 NODE   VOLTAGE     NODE   VOLTAGE     NODE   VOLTAGE     NODE   VOLTAGE


(N00232)    0.0000 (N01142)    0.0000 (N01860)    0.0000 (N01867)    0.0000     

(N02150)    0.0000 (N06779)    0.0000 (N07659)    0.0000 (N07707)    0.0000     

(N002051)    0.0000                   




    VOLTAGE SOURCE CURRENTS
    NAME         CURRENT

    V_V1         0.000E+00

    TOTAL POWER DISSIPATION   0.00E+00  WATTS


**** 01/21/17 13:46:45 ****** PSpice Lite (October 2012) ****** ID# 10813 ****

 ** Profile: "SCHEMATIC1-mc test"  [ C:\Users\Tiffany\Documents\Engineering\ECE4899 - Senior Design\Pspice dummy files\rc test-PSpice


 ****     UPDATED MODEL PARAMETERS         TEMPERATURE =   27.000 DEG C

                      MONTE CARLO PASS 10

******************************************************************************



     **** CURRENT MODEL PARAMETERS FOR DEVICES REFERENCING C_C853
                                  C_C853                 
                  C             9.8758E-01  
                               
    
     **** CURRENT MODEL PARAMETERS FOR DEVICES REFERENCING C_C854
                                  C_C854                 
                  C             1.0262E+00  

    
     **** CURRENT MODEL PARAMETERS FOR DEVICES REFERENCING C_C857
                                  C_C857                 
                  C             1.0084E+00  

    
     **** CURRENT MODEL PARAMETERS FOR DEVICES REFERENCING C_C859
                                  C_C859                 
                  C             1.0070E+00  

    
     **** CURRENT MODEL PARAMETERS FOR DEVICES REFERENCING C_C953
                                  C_C953                 
                  C             1.0114E+00  

    
     **** CURRENT MODEL PARAMETERS FOR DEVICES REFERENCING L_L11
                                   L_L11                 
                  L             9.9304E-01  

    
     **** CURRENT MODEL PARAMETERS FOR DEVICES REFERENCING L_L12
                                   L_L12                 
                  L             9.8827E-01  

    
     **** CURRENT MODEL PARAMETERS FOR DEVICES REFERENCING L_L26
                                   L_L26                 
                  L             9.9687E-01  

    
     **** CURRENT MODEL PARAMETERS FOR DEVICES REFERENCING L_L27
                                   L_L27                 
                  L             1.0021E+00  

    
     **** CURRENT MODEL PARAMETERS FOR DEVICES REFERENCING R_R1a
                                   R_R1a                 
                  R             1.0035E+00  

    
     **** CURRENT MODEL PARAMETERS FOR DEVICES REFERENCING R_R1b
                                   R_R1b                 
                  R             9.9177E-01  

    
     **** CURRENT MODEL PARAMETERS FOR DEVICES REFERENCING R_R2
                                   R_R2                  
                  R             1.0116E+00  

    
     **** CURRENT MODEL PARAMETERS FOR DEVICES REFERENCING R_R71
                                   R_R71                 
                  R             9.9354E-01  

    
     **** CURRENT MODEL PARAMETERS FOR DEVICES REFERENCING R_R74
                                   R_R74                 
                  R             9.9405E-01  

    
     **** CURRENT MODEL PARAMETERS FOR DEVICES REFERENCING R_R75
                                   R_R75                 
                  R             1.0013E+00  

    
     **** CURRENT MODEL PARAMETERS FOR DEVICES REFERENCING R_R79
                                   R_R79                 
                  R             9.8868E-01  

    

**** 01/21/17 13:46:45 ****** PSpice Lite (October 2012) ****** ID# 10813 ****

 ** Profile: "SCHEMATIC1-mc test"  [ C:\Users\Tiffany\Documents\Engineering\ECE4899 - Senior Design\Pspice dummy files\rc test-PSpice


 ****     SORTED DEVIATIONS OF V(N02150)   TEMPERATURE =   27.000 DEG C

                      MONTE CARLO SUMMARY

******************************************************************************





Mean Deviation =  -45.3300E-06
Sigma          =  330.0400E-06

 RUN                    MAX DEVIATION FROM NOMINAL

Pass    5            555.6600E-06  (1.68 sigma)  lower  at T =    1.0909E-09
                        ( 102.43% of Nominal)

Pass    9            426.6900E-06  (1.29 sigma)  higher  at T =    1.0909E-09
                        (  98.132% of Nominal)

Pass    3            395.1700E-06  (1.20 sigma)  higher  at T =    1.7309E-09
                        (  97.289% of Nominal)

Pass    2            322.2700E-06  ( .98 sigma)  lower  at T =  730.8800E-12
                        (  65.484% of Nominal)

Pass    6            303.3000E-06  ( .92 sigma)  lower  at T =    1.9709E-09
                        (  95.647% of Nominal)

Pass    7            267.4200E-06  ( .81 sigma)  lower  at T =    2.0000E-09
                        ( 113.38% of Nominal)

Pass    8            185.6900E-06  ( .56 sigma)  higher  at T =    1.1709E-09
                        (  99.126% of Nominal)

Pass    4            173.8500E-06  ( .53 sigma)  higher  at T =  370.8700E-12
                        ( 100.87% of Nominal)

Pass   10            140.7000E-06  ( .43 sigma)  lower  at T =  610.8800E-12
                        ( 101.23% of Nominal)



          JOB CONCLUDED

**** 01/21/17 13:46:45 ****** PSpice Lite (October 2012) ****** ID# 10813 ****

 ** Profile: "SCHEMATIC1-mc test"  [ C:\Users\Tiffany\Documents\Engineering\ECE4899 - Senior Design\Pspice dummy files\rc test-PSpice


 ****     JOB STATISTICS SUMMARY


******************************************************************************



  Total job time (using Solver 1)   =         .22
