
**** 01/21/17 13:42:09 ****** PSpice Lite (October 2012) ****** ID# 10813 ****

 ** Profile: "SCHEMATIC1-mc freq test"  [ C:\Users\Tiffany\Documents\Engineering\ECE4899 - Senior Design\Pspice dummy files\rc test-P


 ****     CIRCUIT DESCRIPTION


******************************************************************************




** Creating circuit file "mc freq test.cir" 
** WARNING: THIS AUTOMATICALLY GENERATED FILE MAY BE OVERWRITTEN BY SUBSEQUENT SIMULATIONS

*Libraries: 
* Profile Libraries :
* Local Libraries :
* From [PSPICE NETLIST] section of C:\Users\Tiffany\AppData\Roaming\SPB_16.6\cdssetup\OrCAD_PSpice/16.6.0/PSpice.ini file:
.lib "nomd.lib" 

*Analysis directives: 
.AC LIN 1000 800Meg 6G
.MC 10 AC V([N02150]) YMAX OUTPUT ALL SEED=17366 
.OPTIONS DISTRIBUTION GAUSS
.OPTIONS ADVCONV
.PROBE64 V(alias(*)) I(alias(*)) W(alias(*)) D(alias(*)) NOISE(alias(*)) 
.INC "..\SCHEMATIC1.net" 



**** INCLUDING SCHEMATIC1.net ****
* source RC TEST
C_C857         N00232 N002051 C_C857 100p  TC=0,0 
.model        C_C857 CAP C=1 DEV=1% TC1=0 TC2=0 VC1=0 VC2=0
R_R75         0 N00232 R_R75 93.1 TC=0,0 
.model        R_R75 RES R=1 DEV=1% TC1=0 TC2=0
R_R79         N01142 N00232 R_R79 93.1 TC=0,0 
.model        R_R79 RES R=1 DEV=1% TC1=0 TC2=0
R_R74         0 N01142 R_R74 93.1 TC=0,0 
.model        R_R74 RES R=1 DEV=1% TC1=0 TC2=0
L_L11         N01142 N01860 L_L11 10nH  
.model        l_L11 IND L=1 DEV=1% TC1=0 TC2=0 IL1=0 IL2=0
L_L12         0 N01867 L_L12 10nH  
.model        l_L12 IND L=1 DEV=1% TC1=0 TC2=0 IL1=0 IL2=0
Kn_K1         L_L11 L_L12     1 Kbreak
C_C953         N01860 N01867 C_C953 1p  TC=0,0 
.model        C_C953 CAP C=1 DEV=1% TC1=0 TC2=0 VC1=0 VC2=0
L_L26         N01860 N02150 L_L26 1nH  
.model        l_L26 IND L=1 DEV=1% TC1=0 TC2=0 IL1=0 IL2=0
V_V1         N06779 0  AC 1
+SIN 0 3 1.9G 0 0 0
L_L27         N01867 N02150 L_L27 1nH  
.model        l_L27 IND L=1 DEV=1% TC1=0 TC2=0 IL1=0 IL2=0
R_R71         N02150 N02150 R_R71 93.1 TC=0,0 
.model        R_R71 RES R=1 DEV=1% TC1=0 TC2=0
C_C853         0 N02150 C_C853 100p  TC=0,0 
.model        C_C853 CAP C=1 DEV=1% TC1=0 TC2=0 VC1=0 VC2=0
C_C854         0 N02150 C_C854 100p  TC=0,0 
.model        C_C854 CAP C=1 DEV=1% TC1=0 TC2=0 VC1=0 VC2=0
R_R1b         N07707 N002051 R_R1b 2.0137 TC=0,0 
.model        R_R1b RES R=1 DEV=1% TC1=0 TC2=0
R_R1a         N07659 N07707 R_R1a 2.0137 TC=0,0 
.model        R_R1a RES R=1 DEV=1% TC1=0 TC2=0
R_R2         0 N07707 R_R2 619.75 TC=0,0 
.model        R_R2 RES R=1 DEV=1% TC1=0 TC2=0
C_C859         N07659 N06779 C_C859 100p  TC=0,0 
.model        C_C859 CAP C=1 DEV=1% TC1=0 TC2=0 VC1=0 VC2=0

**** RESUMING "mc freq test.cir" ****
.END

**** 01/21/17 13:42:09 ****** PSpice Lite (October 2012) ****** ID# 10813 ****

 ** Profile: "SCHEMATIC1-mc freq test"  [ C:\Users\Tiffany\Documents\Engineering\ECE4899 - Senior Design\Pspice dummy files\rc test-P


 ****     Resistor MODEL PARAMETERS


******************************************************************************




               R_R75           R_R79           R_R74           R_R71           
           R    1               1               1               1            


               R_R1b           R_R1a           R_R2            
           R    1               1               1            


**** 01/21/17 13:42:09 ****** PSpice Lite (October 2012) ****** ID# 10813 ****

 ** Profile: "SCHEMATIC1-mc freq test"  [ C:\Users\Tiffany\Documents\Engineering\ECE4899 - Senior Design\Pspice dummy files\rc test-P


 ****     Capacitor MODEL PARAMETERS


******************************************************************************




               C_C857          C_C953          C_C853          C_C854          
           C    1               1               1               1            


               C_C859          
           C    1            


**** 01/21/17 13:42:09 ****** PSpice Lite (October 2012) ****** ID# 10813 ****

 ** Profile: "SCHEMATIC1-mc freq test"  [ C:\Users\Tiffany\Documents\Engineering\ECE4899 - Senior Design\Pspice dummy files\rc test-P


 ****     Inductor MODEL PARAMETERS


******************************************************************************




               L_L11           L_L12           L_L26           L_L27           
           L    1               1               1               1            


**** 01/21/17 13:42:09 ****** PSpice Lite (October 2012) ****** ID# 10813 ****

 ** Profile: "SCHEMATIC1-mc freq test"  [ C:\Users\Tiffany\Documents\Engineering\ECE4899 - Senior Design\Pspice dummy files\rc test-P


 ****     Ferromagnetic Core MODEL PARAMETERS


******************************************************************************




               Kbreak          
       LEVEL    2            
        AREA     .65         
        PATH    8            
          MS    1.289600E+06 
           A    2.712800E+03 
           C     .25001      


**** 01/21/17 13:42:09 ****** PSpice Lite (October 2012) ****** ID# 10813 ****

 ** Profile: "SCHEMATIC1-mc freq test"  [ C:\Users\Tiffany\Documents\Engineering\ECE4899 - Senior Design\Pspice dummy files\rc test-P


 ****     SMALL SIGNAL BIAS SOLUTION       TEMPERATURE =   27.000 DEG C

                      MONTE CARLO NOMINAL

******************************************************************************



 NODE   VOLTAGE     NODE   VOLTAGE     NODE   VOLTAGE     NODE   VOLTAGE


(N00232)    0.0000 (N01142)    0.0000 (N01860)    0.0000 (N01867)    0.0000     

(N02150)    0.0000 (N06779)    0.0000 (N07659)    0.0000 (N07707)    0.0000     

(N002051)    0.0000                   




    VOLTAGE SOURCE CURRENTS
    NAME         CURRENT

    V_V1         0.000E+00

    TOTAL POWER DISSIPATION   0.00E+00  WATTS


**** 01/21/17 13:42:09 ****** PSpice Lite (October 2012) ****** ID# 10813 ****

 ** Profile: "SCHEMATIC1-mc freq test"  [ C:\Users\Tiffany\Documents\Engineering\ECE4899 - Senior Design\Pspice dummy files\rc test-P


 ****     SMALL SIGNAL BIAS SOLUTION       TEMPERATURE =   27.000 DEG C

                      MONTE CARLO PASS 2

******************************************************************************



 NODE   VOLTAGE     NODE   VOLTAGE     NODE   VOLTAGE     NODE   VOLTAGE


(N00232)    0.0000 (N01142)    0.0000 (N01860)    0.0000 (N01867)    0.0000     

(N02150)    0.0000 (N06779)    0.0000 (N07659)    0.0000 (N07707)    0.0000     

(N002051)    0.0000                   




    VOLTAGE SOURCE CURRENTS
    NAME         CURRENT

    V_V1         0.000E+00

    TOTAL POWER DISSIPATION   0.00E+00  WATTS


**** 01/21/17 13:42:09 ****** PSpice Lite (October 2012) ****** ID# 10813 ****

 ** Profile: "SCHEMATIC1-mc freq test"  [ C:\Users\Tiffany\Documents\Engineering\ECE4899 - Senior Design\Pspice dummy files\rc test-P


 ****     SMALL SIGNAL BIAS SOLUTION       TEMPERATURE =   27.000 DEG C

                      MONTE CARLO PASS 3

******************************************************************************



 NODE   VOLTAGE     NODE   VOLTAGE     NODE   VOLTAGE     NODE   VOLTAGE


(N00232)    0.0000 (N01142)    0.0000 (N01860)    0.0000 (N01867)    0.0000     

(N02150)    0.0000 (N06779)    0.0000 (N07659)    0.0000 (N07707)    0.0000     

(N002051)    0.0000                   




    VOLTAGE SOURCE CURRENTS
    NAME         CURRENT

    V_V1         0.000E+00

    TOTAL POWER DISSIPATION   0.00E+00  WATTS


**** 01/21/17 13:42:09 ****** PSpice Lite (October 2012) ****** ID# 10813 ****

 ** Profile: "SCHEMATIC1-mc freq test"  [ C:\Users\Tiffany\Documents\Engineering\ECE4899 - Senior Design\Pspice dummy files\rc test-P


 ****     SMALL SIGNAL BIAS SOLUTION       TEMPERATURE =   27.000 DEG C

                      MONTE CARLO PASS 4

******************************************************************************



 NODE   VOLTAGE     NODE   VOLTAGE     NODE   VOLTAGE     NODE   VOLTAGE


(N00232)    0.0000 (N01142)    0.0000 (N01860)    0.0000 (N01867)    0.0000     

(N02150)    0.0000 (N06779)    0.0000 (N07659)    0.0000 (N07707)    0.0000     

(N002051)    0.0000                   




    VOLTAGE SOURCE CURRENTS
    NAME         CURRENT

    V_V1         0.000E+00

    TOTAL POWER DISSIPATION   0.00E+00  WATTS


**** 01/21/17 13:42:09 ****** PSpice Lite (October 2012) ****** ID# 10813 ****

 ** Profile: "SCHEMATIC1-mc freq test"  [ C:\Users\Tiffany\Documents\Engineering\ECE4899 - Senior Design\Pspice dummy files\rc test-P


 ****     SMALL SIGNAL BIAS SOLUTION       TEMPERATURE =   27.000 DEG C

                      MONTE CARLO PASS 5

******************************************************************************



 NODE   VOLTAGE     NODE   VOLTAGE     NODE   VOLTAGE     NODE   VOLTAGE


(N00232)    0.0000 (N01142)    0.0000 (N01860)    0.0000 (N01867)    0.0000     

(N02150)    0.0000 (N06779)    0.0000 (N07659)    0.0000 (N07707)    0.0000     

(N002051)    0.0000                   




    VOLTAGE SOURCE CURRENTS
    NAME         CURRENT

    V_V1         0.000E+00

    TOTAL POWER DISSIPATION   0.00E+00  WATTS


**** 01/21/17 13:42:09 ****** PSpice Lite (October 2012) ****** ID# 10813 ****

 ** Profile: "SCHEMATIC1-mc freq test"  [ C:\Users\Tiffany\Documents\Engineering\ECE4899 - Senior Design\Pspice dummy files\rc test-P


 ****     SMALL SIGNAL BIAS SOLUTION       TEMPERATURE =   27.000 DEG C

                      MONTE CARLO PASS 6

******************************************************************************



 NODE   VOLTAGE     NODE   VOLTAGE     NODE   VOLTAGE     NODE   VOLTAGE


(N00232)    0.0000 (N01142)    0.0000 (N01860)    0.0000 (N01867)    0.0000     

(N02150)    0.0000 (N06779)    0.0000 (N07659)    0.0000 (N07707)    0.0000     

(N002051)    0.0000                   




    VOLTAGE SOURCE CURRENTS
    NAME         CURRENT

    V_V1         0.000E+00

    TOTAL POWER DISSIPATION   0.00E+00  WATTS


**** 01/21/17 13:42:09 ****** PSpice Lite (October 2012) ****** ID# 10813 ****

 ** Profile: "SCHEMATIC1-mc freq test"  [ C:\Users\Tiffany\Documents\Engineering\ECE4899 - Senior Design\Pspice dummy files\rc test-P


 ****     SMALL SIGNAL BIAS SOLUTION       TEMPERATURE =   27.000 DEG C

                      MONTE CARLO PASS 7

******************************************************************************



 NODE   VOLTAGE     NODE   VOLTAGE     NODE   VOLTAGE     NODE   VOLTAGE


(N00232)    0.0000 (N01142)    0.0000 (N01860)    0.0000 (N01867)    0.0000     

(N02150)    0.0000 (N06779)    0.0000 (N07659)    0.0000 (N07707)    0.0000     

(N002051)    0.0000                   




    VOLTAGE SOURCE CURRENTS
    NAME         CURRENT

    V_V1         0.000E+00

    TOTAL POWER DISSIPATION   0.00E+00  WATTS


**** 01/21/17 13:42:09 ****** PSpice Lite (October 2012) ****** ID# 10813 ****

 ** Profile: "SCHEMATIC1-mc freq test"  [ C:\Users\Tiffany\Documents\Engineering\ECE4899 - Senior Design\Pspice dummy files\rc test-P


 ****     SMALL SIGNAL BIAS SOLUTION       TEMPERATURE =   27.000 DEG C

                      MONTE CARLO PASS 8

******************************************************************************



 NODE   VOLTAGE     NODE   VOLTAGE     NODE   VOLTAGE     NODE   VOLTAGE


(N00232)    0.0000 (N01142)    0.0000 (N01860)    0.0000 (N01867)    0.0000     

(N02150)    0.0000 (N06779)    0.0000 (N07659)    0.0000 (N07707)    0.0000     

(N002051)    0.0000                   




    VOLTAGE SOURCE CURRENTS
    NAME         CURRENT

    V_V1         0.000E+00

    TOTAL POWER DISSIPATION   0.00E+00  WATTS


**** 01/21/17 13:42:09 ****** PSpice Lite (October 2012) ****** ID# 10813 ****

 ** Profile: "SCHEMATIC1-mc freq test"  [ C:\Users\Tiffany\Documents\Engineering\ECE4899 - Senior Design\Pspice dummy files\rc test-P


 ****     SMALL SIGNAL BIAS SOLUTION       TEMPERATURE =   27.000 DEG C

                      MONTE CARLO PASS 9

******************************************************************************



 NODE   VOLTAGE     NODE   VOLTAGE     NODE   VOLTAGE     NODE   VOLTAGE


(N00232)    0.0000 (N01142)    0.0000 (N01860)    0.0000 (N01867)    0.0000     

(N02150)    0.0000 (N06779)    0.0000 (N07659)    0.0000 (N07707)    0.0000     

(N002051)    0.0000                   




    VOLTAGE SOURCE CURRENTS
    NAME         CURRENT

    V_V1         0.000E+00

    TOTAL POWER DISSIPATION   0.00E+00  WATTS


**** 01/21/17 13:42:09 ****** PSpice Lite (October 2012) ****** ID# 10813 ****

 ** Profile: "SCHEMATIC1-mc freq test"  [ C:\Users\Tiffany\Documents\Engineering\ECE4899 - Senior Design\Pspice dummy files\rc test-P


 ****     SMALL SIGNAL BIAS SOLUTION       TEMPERATURE =   27.000 DEG C

                      MONTE CARLO PASS 10

******************************************************************************



 NODE   VOLTAGE     NODE   VOLTAGE     NODE   VOLTAGE     NODE   VOLTAGE


(N00232)    0.0000 (N01142)    0.0000 (N01860)    0.0000 (N01867)    0.0000     

(N02150)    0.0000 (N06779)    0.0000 (N07659)    0.0000 (N07707)    0.0000     

(N002051)    0.0000                   




    VOLTAGE SOURCE CURRENTS
    NAME         CURRENT

    V_V1         0.000E+00

    TOTAL POWER DISSIPATION   0.00E+00  WATTS


**** 01/21/17 13:42:09 ****** PSpice Lite (October 2012) ****** ID# 10813 ****

 ** Profile: "SCHEMATIC1-mc freq test"  [ C:\Users\Tiffany\Documents\Engineering\ECE4899 - Senior Design\Pspice dummy files\rc test-P


 ****     SORTED DEVIATIONS OF V(N02150)   TEMPERATURE =   27.000 DEG C

                      MONTE CARLO SUMMARY

******************************************************************************





Mean Deviation =   13.1170E-06
Sigma          =  116.3400E-06

 RUN                    MAX DEVIATION FROM NOMINAL

Pass    5            281.8900E-06  (2.42 sigma)  higher  at F =  800.0000E+06
                        ( 102.27% of Nominal)

Pass    6            127.0100E-06  (1.09 sigma)  lower  at F =  800.0000E+06
                        (  98.975% of Nominal)

Pass    9            124.8600E-06  (1.07 sigma)  lower  at F =  800.0000E+06
                        (  98.993% of Nominal)

Pass    2             61.4200E-06  ( .53 sigma)  lower  at F =  800.0000E+06
                        (  99.505% of Nominal)

Pass    7             51.2180E-06  ( .44 sigma)  higher  at F =  800.0000E+06
                        ( 100.41% of Nominal)

Pass    3             50.8980E-06  ( .44 sigma)  higher  at F =    5.7345E+09
                        ( 103.01% of Nominal)

Pass    4             40.8440E-06  ( .35 sigma)  higher  at F =  867.6700E+06
                        ( 100.37% of Nominal)

Pass   10             30.6880E-06  ( .26 sigma)  higher  at F =  935.3400E+06
                        ( 100.31% of Nominal)

Pass    8             24.1990E-06  ( .21 sigma)  lower  at F =  846.8500E+06
                        (  99.789% of Nominal)



          JOB CONCLUDED

**** 01/21/17 13:42:09 ****** PSpice Lite (October 2012) ****** ID# 10813 ****

 ** Profile: "SCHEMATIC1-mc freq test"  [ C:\Users\Tiffany\Documents\Engineering\ECE4899 - Senior Design\Pspice dummy files\rc test-P


 ****     JOB STATISTICS SUMMARY


******************************************************************************



  Total job time (using Solver 1)   =         .77
