
**** 01/19/17 18:21:32 ****** PSpice Lite (October 2012) ****** ID# 10813 ****

 ** Profile: "SCHEMATIC1-test"  [ C:\Users\Tiffany\Documents\Engineering\ECE4899 - Senior Design\Pspice dummy files\rc test-pspicefil


 ****     CIRCUIT DESCRIPTION


******************************************************************************




** Creating circuit file "test.cir" 
** WARNING: THIS AUTOMATICALLY GENERATED FILE MAY BE OVERWRITTEN BY SUBSEQUENT SIMULATIONS

*Libraries: 
* Profile Libraries :
* Local Libraries :
* From [PSPICE NETLIST] section of C:\Users\Tiffany\AppData\Roaming\SPB_16.6\cdssetup\OrCAD_PSpice/16.6.0/PSpice.ini file:
.lib "nomd.lib" 

*Analysis directives: 
.TRAN  0 20ns 0 
.OPTIONS ADVCONV
.PROBE64 V(alias(*)) I(alias(*)) W(alias(*)) D(alias(*)) NOISE(alias(*)) 
.INC "..\SCHEMATIC1.net" 



**** INCLUDING SCHEMATIC1.net ****
* source RC TEST
C_C857         N00232 N06932  100p  TC=0,0 
R_R75         0 N00232  93.1 TC=0,0 
R_R79         N01142 N00232  93.1 TC=0,0 
R_R74         0 N01142  93.1 TC=0,0 
L_L11         N01142 N01860  10nH  
L_L12         0 N01867  10nH  
Kn_K1         L_L11 L_L12     1 Kbreak
C_C953         N01860 N01867  1p  TC=0,0 
L_L26         N01860 N02150  1nH  
V_V1         N06779 0  AC 1
+SIN 0 3 1.9G 0 0 0
L_L27         N01867 N02150  1nH  
R_R71         N02150 N02150  93.1 TC=0,0 
C_C853         0 N02150  100p  TC=0,0 
C_C854         0 N02150  100p  TC=0,0 
C_C954         N06932 N06779  100p  TC=0,0 

**** RESUMING test.cir ****
.END

ERROR(ORPSIM-15142): Node N06932 is floating
