
**** 02/18/17 18:49:40 ****** PSpice Lite (October 2012) ****** ID# 10813 ****

 ** Profile: "SCHEMATIC1-freq"  [ C:\Users\Tiffany\Documents\Engineering\ECE4899 - Senior Design\Pspice dummy files\pfewsma-pspicefil


 ****     CIRCUIT DESCRIPTION


******************************************************************************




** Creating circuit file "freq.cir" 
** WARNING: THIS AUTOMATICALLY GENERATED FILE MAY BE OVERWRITTEN BY SUBSEQUENT SIMULATIONS

*Libraries: 
* Profile Libraries :
* Local Libraries :
* From [PSPICE NETLIST] section of C:\Users\Tiffany\AppData\Roaming\SPB_16.6\cdssetup\OrCAD_PSpice/16.6.0/PSpice.ini file:
.lib "nomd.lib" 

*Analysis directives: 
.AC DEC 100 800Meg 10G
.OPTIONS ADVCONV
.PROBE64 V(alias(*)) I(alias(*)) W(alias(*)) D(alias(*)) NOISE(alias(*)) 
.INC "..\SCHEMATIC1.net" 



**** INCLUDING SCHEMATIC1.net ****
* source PFEWSMA
C_C857         N00232 N12621 C_C857 100p  TC=0,0 
.model        C_C857 CAP C=1 DEV=1% TC1=0 TC2=0 VC1=0 VC2=0
R_R75         0 N00232 R_R75 93.1 TC=0,0 
.model        R_R75 RES R=1 DEV=1% TC1=0 TC2=0
R_R79         N01142 N00232 R_R79 93.1 TC=0,0 
.model        R_R79 RES R=1 DEV=1% TC1=0 TC2=0
R_R74         0 N01142 R_R74 93.1 TC=0,0 
.model        R_R74 RES R=1 DEV=1% TC1=0 TC2=0
L_L11         N01142 N02144 L_L11 10nH  
.model        l_L11 IND L=1 DEV=1% TC1=0 TC2=0 IL1=0 IL2=0
L_L12         0 N01867 L_L12 10nH  
.model        l_L12 IND L=1 DEV=1% TC1=0 TC2=0 IL1=0 IL2=0
Kn_K1         L_L11 L_L12     1 Kbreak
C_C953         N02144 N01867 C_C953 1p  TC=0,0 
.model        C_C953 CAP C=1 DEV=1% TC1=0 TC2=0 VC1=0 VC2=0
L_L26         N02144 N02906 L_L26 1nH  
.model        l_L26 IND L=1 DEV=1% TC1=0 TC2=0 IL1=0 IL2=0
V_V1         N025340 0  AC 5
+SIN 0 5 1.9G 0 0 0
L_L27         N01867 N02914 L_L27 1nH  
.model        l_L27 IND L=1 DEV=1% TC1=0 TC2=0 IL1=0 IL2=0
R_R71         N02914 N02906 R_R71 93.1 TC=0,0 
.model        R_R71 RES R=1 DEV=1% TC1=0 TC2=0
C_C853         0 N02906 C_C853 100p  TC=0,0 
.model        C_C853 CAP C=1 DEV=1% TC1=0 TC2=0 VC1=0 VC2=0
C_C854         0 N02914 C_C854 100p  TC=0,0 
.model        C_C854 CAP C=1 DEV=1% TC1=0 TC2=0 VC1=0 VC2=0
R_R1b         N07707 N12621 R_R1b 1.726 TC=0,0 
.model        R_R1b RES R=1 DEV=1% TC1=0 TC2=0
R_R1a         N076011 N07707 R_R1a 1.726 TC=0,0 
.model        R_R1a RES R=1 DEV=1% TC1=0 TC2=0
R_R2a         0 N07707 R_R2a 723.2 TC=0,0 
.model        R_R2a RES R=1 DEV=1% TC1=0 TC2=0
C_C859         N076011 N13561 C_C859 100p  TC=0,0 
.model        C_C859 CAP C=1 DEV=1% TC1=0 TC2=0 VC1=0 VC2=0
R_R1         N025340 N16260  50 TC=0,0 
R_R2         0 N13561  50 TC=0,0 
R_R_open         0 N15543  10E12 TC=0,0 
T_T1         N16260 0 N109082 0 Z0=50 TD=4.45E-11  
T_T2         N14912 0 N13561 0 Z0=50 TD=1.41E-10  
T_T3         N11576 0 N15543 0 Z0=175 TD=1.13E-11  
L_L1         N109082 N14912  5.6nH  
L_L2         N11576 N14912  2.72nH  

**** RESUMING freq.cir ****
.END

**** 02/18/17 18:49:40 ****** PSpice Lite (October 2012) ****** ID# 10813 ****

 ** Profile: "SCHEMATIC1-freq"  [ C:\Users\Tiffany\Documents\Engineering\ECE4899 - Senior Design\Pspice dummy files\pfewsma-pspicefil


 ****     Resistor MODEL PARAMETERS


******************************************************************************




               R_R75           R_R79           R_R74           R_R71           
           R    1               1               1               1            


               R_R1b           R_R1a           R_R2a           
           R    1               1               1            


**** 02/18/17 18:49:40 ****** PSpice Lite (October 2012) ****** ID# 10813 ****

 ** Profile: "SCHEMATIC1-freq"  [ C:\Users\Tiffany\Documents\Engineering\ECE4899 - Senior Design\Pspice dummy files\pfewsma-pspicefil


 ****     Capacitor MODEL PARAMETERS


******************************************************************************




               C_C857          C_C953          C_C853          C_C854          
           C    1               1               1               1            


               C_C859          
           C    1            


**** 02/18/17 18:49:40 ****** PSpice Lite (October 2012) ****** ID# 10813 ****

 ** Profile: "SCHEMATIC1-freq"  [ C:\Users\Tiffany\Documents\Engineering\ECE4899 - Senior Design\Pspice dummy files\pfewsma-pspicefil


 ****     Inductor MODEL PARAMETERS


******************************************************************************




               L_L11           L_L12           L_L26           L_L27           
           L    1               1               1               1            


**** 02/18/17 18:49:40 ****** PSpice Lite (October 2012) ****** ID# 10813 ****

 ** Profile: "SCHEMATIC1-freq"  [ C:\Users\Tiffany\Documents\Engineering\ECE4899 - Senior Design\Pspice dummy files\pfewsma-pspicefil


 ****     Ferromagnetic Core MODEL PARAMETERS


******************************************************************************




               Kbreak          
       LEVEL    2            
        AREA     .65         
        PATH    8            
          MS    1.289600E+06 
           A    2.712800E+03 
           C     .25001      


**** 02/18/17 18:49:40 ****** PSpice Lite (October 2012) ****** ID# 10813 ****

 ** Profile: "SCHEMATIC1-freq"  [ C:\Users\Tiffany\Documents\Engineering\ECE4899 - Senior Design\Pspice dummy files\pfewsma-pspicefil


 ****     SMALL SIGNAL BIAS SOLUTION       TEMPERATURE =   27.000 DEG C


******************************************************************************



 NODE   VOLTAGE     NODE   VOLTAGE     NODE   VOLTAGE     NODE   VOLTAGE


(N00232)    0.0000 (N01142)    0.0000 (N01867)    0.0000 (N02144)    0.0000     

(N02906)    0.0000 (N02914)    0.0000 (N07707)    0.0000 (N11576)    0.0000     

(N12621)    0.0000 (N13561)    0.0000 (N14912)    0.0000 (N15543)    0.0000     

(N16260)    0.0000 (N025340)    0.0000                   (N076011)    0.0000    

(N109082)    0.0000                   




    VOLTAGE SOURCE CURRENTS
    NAME         CURRENT

    V_V1         0.000E+00

    TOTAL POWER DISSIPATION   0.00E+00  WATTS



          JOB CONCLUDED

**** 02/18/17 18:49:40 ****** PSpice Lite (October 2012) ****** ID# 10813 ****

 ** Profile: "SCHEMATIC1-freq"  [ C:\Users\Tiffany\Documents\Engineering\ECE4899 - Senior Design\Pspice dummy files\pfewsma-pspicefil


 ****     JOB STATISTICS SUMMARY


******************************************************************************



  Total job time (using Solver 1)   =         .14
